/*--------------------------------*- C++ -*----------------------------------*\
| =========                 |                                                 |
| \\      /  F ield         | OpenFOAM: The Open Source CFD Toolbox           |
|  \\    /   O peration     | Version:  dev                                   |
|   \\  /    A nd           | Web:      www.OpenFOAM.org                      |
|    \\/     M anipulation  |                                                 |
\*---------------------------------------------------------------------------*/
FoamFile
{
    version     2.0;
    format      ascii;
    class       dictionary;
    location    "constant";
    object      phaseProperties;
}
// * * * * * * * * * * * * * * * * * * * * * * * * * * * * * * * * * * * * * //

phases (air water);

air
{
    diameterModel   IATE;

    IATECoeffs
    {
        dMax 1e-2;
        dMin 1e-4;
        residualAlpha 1e-6;

        sources
        (
            wakeEntrainmentCoalescence
            {
                Cwe         0.002;
            }
            randomCoalescence
            {
                Crc         0.04;
                C           3;
                alphaMax    0.75;
            }
            turbulentBreakUp
            {
                Cti         0.085;
                WeCr        6;
            }
        );
    }

    residualAlpha   1e-6;
}

water
{
    diameterModel constant;
    constantCoeffs
    {
        d               1e-4;
    }

    residualAlpha   1e-6;
}

blending
{
    default
    {
        type            linear;
        maxFullyDispersedAlpha.air 0.3;
        maxPartlyDispersedAlpha.air 0.5;
        maxFullyDispersedAlpha.water 0.3;
        maxPartlyDispersedAlpha.water 0.5;
    }
}

sigma
(
    (air and water)     0.07
);

aspectRatio
(
    (air in water)
    {
        type            constant;
        E0              1.0;
    }

    (water in air)
    {
        type            constant;
        E0              1.0;
    }
);

drag
(
    (air in water)
    {
        type            SchillerNaumann;
        residualRe      1e-3;
        swarmCorrection
        {
            type        none;
        }
    }

    (water in air)
    {
        type            SchillerNaumann;
        residualRe      1e-3;
        swarmCorrection
        {
            type        none;
        }
    }

    (air and water)
    {
        type            segregated;
        m               0.5;
        n               8;
        swarmCorrection
        {
            type        none;
        }
    }
);

virtualMass
(
    (air in water)
    {
        type            constantCoefficient;
        Cvm             0.5;
    }

    (water in air)
    {
        type            constantCoefficient;
        Cvm             0.5;
    }
);

heatTransfer
(
    (air in water)
    {
        type            RanzMarshall;
        residualAlpha   1e-4;
    }

    (water in air)
    {
        type            RanzMarshall;
        residualAlpha   1e-4;
    }
);

phaseTransfer
(
);

lift
(
);

wallLubrication
(
);

turbulentDispersion
(
);

// Minimum allowable pressure
pMin            10000;


// ************************************************************************* //
