/*--------------------------------*- C++ -*----------------------------------*\
  =========                 |
  \\      /  F ield         | OpenFOAM: The Open Source CFD Toolbox
   \\    /   O peration     | Website:  https://openfoam.org
    \\  /    A nd           | Version:  dev
     \\/     M anipulation  |
\*---------------------------------------------------------------------------*/
FoamFile
{
    version     2.0;
    format      ascii;
    class       dictionary;
    location    "constant";
    object      fvOptions;
}
// * * * * * * * * * * * * * * * * * * * * * * * * * * * * * * * * * * * * * //

airToporous
{
    type            constantHeatTransfer;

    interpolationMethod cellVolumeWeight;
    nbrRegionName   porous;
    master          false;

    nbrModel        porousToair;
    fields          (h);
    semiImplicit    no;
}

porosityBlockage
{
    type            interRegionExplicitPorositySource;

    interRegionExplicitPorositySourceCoeffs
    {
        interpolationMethod cellVolumeWeight;
        nbrRegionName   porous;

        type            DarcyForchheimer;

        d   (-1000 -1000 1e4);
        f   (0 0 0);

        coordinateSystem
        {
            type    cartesian;
            origin  (0 0 0);
            coordinateRotation
            {
                type    axesRotation;
                e1      (0 1 0);
                e2      (0 0 1);
            }
        }
    }
}


// ************************************************************************* //
