/*--------------------------------*- C++ -*----------------------------------*\
  =========                 |
  \\      /  F ield         | OpenFOAM: The Open Source CFD Toolbox
   \\    /   O peration     | Website:  https://openfoam.org
    \\  /    A nd           | Version:  dev
     \\/     M anipulation  |
\*---------------------------------------------------------------------------*/
FoamFile
{
    format      ascii;
    class       dictionary;
    location    "system";
    object      fvSolution;
}
// * * * * * * * * * * * * * * * * * * * * * * * * * * * * * * * * * * * * * //

solvers
{
    "rho.*"
    {
        solver          diagonal;
    }

    p_rgh
    {
        solver          PCG;
        preconditioner
        {
            preconditioner  GAMG;
            smoother        GaussSeidel;
        }
        tolerance       1e-8;
        relTol          0.01;
    }

    p_rghFinal
    {
        $p_rgh;
        relTol          0;
    }

    "(U|e|h|k|epsilon|omega)"
    {
        solver          smoothSolver;
        smoother        symGaussSeidel;
        tolerance       1e-8;
        relTol          0.1;
    }

    "(U|e|h|k|epsilon|omega)Final"
    {
        $U;
        relTol          0;
    }
}

// timeScheme = steadyState for a steady-state simulation; otherwise transient
timeScheme $fvSchemes!ddtSchemes/default;

PIMPLE
{
    momentumPredictor no;
    nNonOrthogonalCorrectors 0;
    nCorrectors     2;
    nOuterCorrectors 1;

    pRefValue       0;
    pRefCell        0;
}

// Relaxation factors for incompressible and compressible solution
#ifeq $timeScheme steadyState
relaxationFactors
{
    fields
    {
        p               0.3;
        rho             0.01;
    }
    equations
    {
        U               0.7;
        ".*"            0.7;
    }
}
#else
relaxationFactors
{
    // Transient relaxation factors
    equations
    {
        ".*"  1;
    }
}
#endif

// ************************************************************************* //
