/*--------------------------------*- C++ -*----------------------------------*\
| =========                 |                                                 |
| \\      /  F ield         | OpenFOAM: The Open Source CFD Toolbox           |
|  \\    /   O peration     | Version:  dev                                   |
|   \\  /    A nd           | Website:  https://openfoam.org                  |
|    \\/     M anipulation  |                                                 |
\*---------------------------------------------------------------------------*/
FoamFile
{
    version     2.0;
    format      ascii;
    class       dictionary;
    object      blockMeshDict;
}
// * * * * * * * * * * * * * * * * * * * * * * * * * * * * * * * * * * * * * //

convertToMeters 200;

vertices
(
    (0 -0.1 0)
    (1 -0.1 0)
    (1 0.1 0)
    (0 0.1 0)
    (0 -0.1 0.1)
    (1 -0.1 0.1)
    (1 0.1 0.1)
    (0 0.1 0.1)
);

blocks
(
    hex (0 1 2 3 4 5 6 7) (500 1 1) simpleGrading (1 1 1)
);

edges
(
);

boundary
(
    lowValue
    {
        type patch;
        faces
        (
            (0 4 7 3)
        );
    }
    highValue
    {
        type patch;
        faces
        (
            (2 6 5 1)
        );
    }
);

mergePatchPairs
(
);

// ************************************************************************* //
