/*--------------------------------*- C++ -*----------------------------------*\
  =========                 |
  \\      /  F ield         | OpenFOAM: The Open Source CFD Toolbox
   \\    /   O peration     | Website:  https://openfoam.org
    \\  /    A nd           | Version:  dev
     \\/     M anipulation  |
\*---------------------------------------------------------------------------*/
FoamFile
{
    version     2.0;
    format      ascii;
    class       dictionary;
    location    "constant";
    object      thermophysicalProperties;
}
// * * * * * * * * * * * * * * * * * * * * * * * * * * * * * * * * * * * * * //

thermoType
{
    type            heheuPsiThermo;
    mixture         inhomogeneousMixture;
    transport       sutherland;
    thermo          janaf;
    equationOfState perfectGas;
    specie          specie;
    energy          absoluteEnthalpy;
}

stoichiometricAirFuelMassRatio  stoichiometricAirFuelMassRatio [0 0 0 0 0 0 0] 15.5776;

fuel
{
    specie
    {
        molWeight       44.0962;
    }
    thermodynamics
    {
        Tlow            200;
        Thigh           5000;
        Tcommon         1000;
        highCpCoeffs    ( 7.53414 0.0188722 -6.27185e-06 9.14756e-10 -4.78381e-14 -16467.5 -17.8923 );
        lowCpCoeffs     ( 0.933554 0.0264246 6.10597e-06 -2.19775e-08 9.51493e-12 -13958.5 19.2017  );
    }
    transport
    {
        As              1.67212e-06;
        Ts              170.672;
    }
}


oxidant
{
    specie
    {
        molWeight       28.8504;
    }
    thermodynamics
    {
        Tlow            200;
        Thigh           6000;
        Tcommon         1000;
        highCpCoeffs    ( 3.10131 0.00124137 -4.18816e-07 6.64158e-11 -3.91274e-15 -985.266 5.35597 );
        lowCpCoeffs     ( 3.58378 -0.000727005 1.67057e-06 -1.09203e-10 -4.31765e-13 -1050.53 3.11239 );
    }
    transport
    {
        As              1.67212e-06;
        Ts              170.672;
    }
}

burntProducts
{
    specie
    {
        molWeight      28.3233;
    }
    thermodynamics
    {
        Tlow           200;
        Thigh          6000;
        Tcommon        1000;
        highCpCoeffs   ( 3.10558 0.00179747 -5.94696e-07 9.05605e-11 -5.08443e-15 -11003.6 5.12104 );
        lowCpCoeffs    ( 3.49796 0.000638555 -1.83881e-07 1.20989e-09 -7.68691e-13 -11080.5 3.18188 );
    }
    transport
    {
        As             1.67212e-06;
        Ts             170.672;
    }
}

// ************************************************************************* //
