/*--------------------------------*- C++ -*----------------------------------*\
  =========                 |
  \\      /  F ield         | OpenFOAM: The Open Source CFD Toolbox
   \\    /   O peration     | Website:  https://openfoam.org
    \\  /    A nd           | Version:  dev
     \\/     M anipulation  |
\*---------------------------------------------------------------------------*/
FoamFile
{
    format      ascii;
    class       dictionary;
    location    "system";
    object      decomposeParDict;
}
// * * * * * * * * * * * * * * * * * * * * * * * * * * * * * * * * * * * * * //

numberOfSubdomains  4;

/*
    Main methods are:
    1) Geometric: "simple"; "hierarchical", with ordered sorting, e.g. xyz, yxz
    2) Scotch: "scotch", when running in serial; "ptscotch", running in parallel
*/

method              hierarchical;

hierarchicalCoeffs
{
    n               (1 4 1);
    order           xyz;
}


// ************************************************************************* //
