/*--------------------------------*- C++ -*----------------------------------*\
| =========                 |                                                 |
| \\      /  F ield         | OpenFOAM: The Open Source CFD Toolbox           |
|  \\    /   O peration     | Version:  dev                                   |
|   \\  /    A nd           | Web:      www.OpenFOAM.org                      |
|    \\/     M anipulation  |                                                 |
\*---------------------------------------------------------------------------*/
FoamFile
{
    version         2;
    format          ascii;
    class           dictionary;
    location        "system";
    object          controlDict;
}

application     reactingFoam;

startFrom       latestTime;

startTime       0;

stopAt          endTime;

endTime         1500;

deltaT          1;

writeControl    runTime;

writeInterval   1500;

purgeWrite      0;

writeFormat     binary;

writePrecision  10;

writeCompression no;

timeFormat      general;

timePrecision   6;

runTimeModifiable true;


// ************************************************************************* //
