/*--------------------------------*- C++ -*----------------------------------*\
  =========                 |
  \\      /  F ield         | OpenFOAM: The Open Source CFD Toolbox
   \\    /   O peration     | Website:  https://openfoam.org
    \\  /    A nd           | Version:  dev
     \\/     M anipulation  |
\*---------------------------------------------------------------------------*/
FoamFile
{
    format      ascii;
    class       volScalarField;
    location    "0";
    object      T;
}
// * * * * * * * * * * * * * * * * * * * * * * * * * * * * * * * * * * * * * //

dimensions      [temperature];

internalField   uniform 273;

boundaryField
{
    patch1
    {
        type            zeroGradient;
    }

    patch2
    {
        type            fixedValue;
        value           uniform 273;
    }

    patch3
    {
        type            zeroGradient;
    }

    patch4
    {
        type            fixedValue;
        value           uniform 573;
    }
}

// ************************************************************************* //
