/*--------------------------------*- C++ -*----------------------------------*\
  =========                 |
  \\      /  F ield         | OpenFOAM: The Open Source CFD Toolbox
   \\    /   O peration     | Website:  https://openfoam.org
    \\  /    A nd           | Version:  dev
     \\/     M anipulation  |
\*---------------------------------------------------------------------------*/
FoamFile
{
    format      ascii;
    class       volScalarField;
    location    "0";
    object      ft;
}
// * * * * * * * * * * * * * * * * * * * * * * * * * * * * * * * * * * * * * //

dimensions      [];

internalField   uniform 0.0623;

boundaryField
{
    outer
    {
        type            uniformInletOutlet;
        uniformInletValue 0.0623;
        value           uniform 0.0623;
    }

    ground
    {
        type            zeroGradient;
    }

    blockedFaces
    {
        type            zeroGradient;
    }

    baffleWall
    {
        type            zeroGradient;
        value           uniform 0.06024096;
    }

    baffleCyclic_half0
    {
        type            cyclic;
    }

    baffleCyclic_half1
    {
        type            cyclic;
    }
}


// ************************************************************************* //
