/*--------------------------------*- C++ -*----------------------------------*\
  =========                 |
  \\      /  F ield         | OpenFOAM: The Open Source CFD Toolbox
   \\    /   O peration     | Website:  https://openfoam.org
    \\  /    A nd           | Version:  dev
     \\/     M anipulation  |
\*---------------------------------------------------------------------------*/
FoamFile
{
    version     2.0;
    format      ascii;
    class       dictionary;
    location    "system";
    object      fvSchemes;
}
// * * * * * * * * * * * * * * * * * * * * * * * * * * * * * * * * * * * * * //

ddtSchemes
{
    default         Euler;
}

gradSchemes
{
    default         Gauss linear;
}

divSchemes
{
    default         none;
    div(phi,U)      Gauss limitedLinearV 1;
    div(phid,p)     Gauss limitedLinear 1;
    div(phi,K)      Gauss limitedLinear 1;
    div(phi,k)      Gauss limitedLinear 1;
    div(phi,epsilon) Gauss limitedLinear 1;
    div(phi,R)      Gauss limitedLinear 1;
    div(R)          Gauss linear;
    div(phiXi,Xi)   Gauss limitedLinear 1;
    div(phiXi,Su)   Gauss limitedLinear 1;
    div(phiSt,b)    Gauss limitedLinear01 1;
    div(phi,ft_b_ha_hau) Gauss multivariateSelection
    {
        fu  limitedLinear01 1;
        ft  limitedLinear01 1;
        b   limitedLinear01 1;
        ha  limitedLinear 1;
        hau limitedLinear 1;
    };
    div(U)          Gauss linear;
    div((Su*n)) Gauss linear;
    div((U+((Su*Xi)*n))) Gauss linear;
    div(((rho*nuEff)*dev2(T(grad(U))))) Gauss linear;
}

laplacianSchemes
{
    default         Gauss linear corrected;
}

interpolationSchemes
{
    default         linear;
}

snGradSchemes
{
    default         corrected;
}


// ************************************************************************* //
