/*--------------------------------*- C++ -*----------------------------------*\
  =========                 |
  \\      /  F ield         | OpenFOAM: The Open Source CFD Toolbox
   \\    /   O peration     | Website:  https://openfoam.org
    \\  /    A nd           | Version:  dev
     \\/     M anipulation  |
\*---------------------------------------------------------------------------*/
FoamFile
{
    format      ascii;
    class       dictionary;
    location    "constant";
    object      momentumTransfer;
}
// * * * * * * * * * * * * * * * * * * * * * * * * * * * * * * * * * * * * * //

drag
{
    blending        segregated;

    air_dispersedIn_water
    {
        type            SchillerNaumann;
    }

    water_dispersedIn_air
    {
        type            SchillerNaumann;
    }

    air_segregatedWith_water
    {
        type            segregated;
        m               0.5;
        n               8;
    }

    air_dispersedIn_oil
    {
        type            SchillerNaumann;
    }

    oil_dispersedIn_air
    {
        type            SchillerNaumann;
    }

    air_segregatedWith_oil
    {
        type            segregated;
        m               0.5;
        n               8;
    }

    air_dispersedIn_mercury
    {
        type            SchillerNaumann;
    }

    mercury_dispersedIn_air
    {
        type            SchillerNaumann;
    }

    air_segregatedWith_mercury
    {
        type            segregated;
        m               0.5;
        n               8;
    }

    water_dispersedIn_oil
    {
        type            SchillerNaumann;
    }

    oil_dispersedIn_water
    {
        type            SchillerNaumann;
    }

    water_segregatedWith_oil
    {
        type            segregated;
        m               0.5;
        n               8;
    }

    water_dispersedIn_mercury
    {
        type            SchillerNaumann;
    }

    mercury_dispersedIn_water
    {
        type            SchillerNaumann;
    }

    water_segregatedWith_mercury
    {
        type            segregated;
        m               0.5;
        n               8;
    }

    oil_dispersedIn_mercury
    {
        type            SchillerNaumann;
    }

    mercury_dispersedIn_oil
    {
        type            SchillerNaumann;
    }

    oil_segregatedWith_mercury
    {
        type            segregated;
        m               0.5;
        n               8;
    }
}

virtualMass
{
    air_dispersedIn_water
    {
        type            constantCoefficient;
        Cvm             0.5;
    }

    water_dispersedIn_air
    {
        type            none;
    }

    air_dispersedIn_oil
    {
        type            constantCoefficient;
        Cvm             0.5;
    }

    oil_dispersedIn_air
    {
        type            none;
    }

    air_dispersedIn_mercury
    {
        type            constantCoefficient;
        Cvm             0.5;
    }

    mercury_dispersedIn_air
    {
        type            none;
    }
}

lift
{}

wallLubrication
{}

turbulentDispersion
{}

// ************************************************************************* //
