/*--------------------------------*- C++ -*----------------------------------*\
  =========                 |
  \\      /  F ield         | OpenFOAM: The Open Source CFD Toolbox
   \\    /   O peration     | Website:  https://openfoam.org
    \\  /    A nd           | Version:  dev
     \\/     M anipulation  |
\*---------------------------------------------------------------------------*/
FoamFile
{
    version     2.0;
    format      ascii;
    class       dictionary;
    object      fvOptions;
}
// * * * * * * * * * * * * * * * * * * * * * * * * * * * * * * * * * * * * * //

// fixedTemperature
// {
//     type            fixedTemperatureConstraint;
//     selectionMode   all;

//     mode            uniform;

//     temperature     constant 300; // Set temperature (K)
// }

// fixedPower
// {
//     type            semiImplicitSource;
//     selectionMode   all;

//     volumeMode      absolute;

//     power           100;          // Set power (W)

//     sources
//     {
//         e
//         {
//             explicit    $power;
//             implicit    0;
//         }
//     }
// }

//************************************************************************** //
