/*--------------------------------*- C++ -*----------------------------------*\
| =========                 |                                                 |
| \\      /  F ield         | OpenFOAM: The Open Source CFD Toolbox           |
|  \\    /   O peration     | Version:  dev                                   |
|   \\  /    A nd           | Website:  https://openfoam.org                  |
|    \\/     M anipulation  |                                                 |
\*---------------------------------------------------------------------------*/
FoamFile
{
    version     2.0;
    format      ascii;
    class       volScalarField;
    location    "0";
    object      epsilon;
}
// * * * * * * * * * * * * * * * * * * * * * * * * * * * * * * * * * * * * * //

dimensions      [0 2 -3 0 0 0 0];

internalField   uniform 0.000765;

boundaryField
{
    movingWall
    {
        type            epsilonWallFunction;
        value           uniform 0.000765;
    }
    fixedWalls
    {
        type            epsilonWallFunction;
        value           uniform 0.000765;
    }
    frontAndBack
    {
        type            empty;
    }
}


// ************************************************************************* //
