/*--------------------------------*- C++ -*----------------------------------*\
  =========                 |
  \\      /  F ield         | OpenFOAM: The Open Source CFD Toolbox
   \\    /   O peration     | Website:  https://openfoam.org
    \\  /    A nd           | Version:  dev
     \\/     M anipulation  |
\*---------------------------------------------------------------------------*/
FoamFile
{
    format      ascii;
    class       dictionary;
    location    "system";
    object      controlDict;
}
// * * * * * * * * * * * * * * * * * * * * * * * * * * * * * * * * * * * * * //

application     multiphaseEulerFoam;

startFrom       startTime;

startTime       0;

stopAt          endTime;

endTime         10;

deltaT          1e-4;

writeControl    adjustableRunTime;

writeInterval   1;

purgeWrite      0;

writeFormat     ascii;

writePrecision  9;

writeCompression off;

timeFormat      general;

timePrecision   8;

runTimeModifiable yes;

adjustTimeStep  yes;

maxCo           0.8;

maxDeltaT       1e-3;

functions
{
    #includeFunc graphCell
    (
        funcName=graph,
        start=(0 0 1e-3),
        end=(0.44 0 1e-3),
        fields=(TiCl4.vapor O2.vapor Cl2.vapor alpha.particles)
    )

    numberConcentration
    {
        type                sizeDistribution;
        functionObjectLibs  ("libmultiphaseEulerFoamFunctionObjects.so");

        writeControl        outputTime;
        writeInterval       1;
        log                 yes;

        regionType          cellZone;
        name                outlet;

        populationBalance   aggregates;
        functionType        number;
        coordinateType      projectedAreaDiameter;
        densityFunction     yes;
        normalise           yes;
        geometric           yes;
    }

    #includeFunc writeObjects
    (
        d.particles,
        a.particles,
        phaseTransfer:dmidtf.TiO2.particlesAndVapor,
        phaseTransfer:dmidtf.TiO2_s.particlesAndVapor
    )
}


// ************************************************************************* //
