/*--------------------------------*- C++ -*----------------------------------*\
  =========                 |
  \\      /  F ield         | OpenFOAM: The Open Source CFD Toolbox
   \\    /   O peration     | Website:  https://openfoam.org
    \\  /    A nd           | Version:  dev
     \\/     M anipulation  |
\*---------------------------------------------------------------------------*/
FoamFile
{
    format      ascii;
    class       dictionary;
    object      dynamicMeshDict;
}
// * * * * * * * * * * * * * * * * * * * * * * * * * * * * * * * * * * * * * //

mover           motionSolver;

libs            ("libfvMeshMovers.so" "libfvMotionSolvers.so");

motionSolver    solidBody;

cellZone        rotatingZone;

solidBodyMotionFunction  rotatingMotion;

#include        "rotatingZoneProperties"

// ************************************************************************* //
