/*--------------------------------*- C++ -*----------------------------------*\
  =========                 |
  \\      /  F ield         | OpenFOAM: The Open Source CFD Toolbox
   \\    /   O peration     | Website:  https://openfoam.org
    \\  /    A nd           | Version:  dev
     \\/     M anipulation  |
\*---------------------------------------------------------------------------*/
FoamFile
{
    version     2.0;
    format      ascii;
    class       volScalarField;
    location    "0";
    object      k;
}
// * * * * * * * * * * * * * * * * * * * * * * * * * * * * * * * * * * * * * //

dimensions      [0 2 -2 0 0 0 0];

internalField   uniform 1000;

boundaryField
{
    inlet
    {
        type            fixedValue;
        value           uniform 1000;
    }
    outlet
    {
        type            inletOutlet;
        inletValue      uniform 1000;
        value           uniform 1000;
    }
    bottomWall
    {
        type            inletOutlet;
        inletValue      uniform 1000;
        value           uniform 1000;
    }
    topWall
    {
        type            inletOutlet;
        inletValue      uniform 1000;
        value           uniform 1000;
    }
    prismWall
    {
        type            kqRWallFunction;
        value           uniform 1000;
    }
    defaultFaces
    {
        type            empty;
    }
}


// ************************************************************************* //
