/*--------------------------------*- C++ -*----------------------------------*\
  =========                 |
  \\      /  F ield         | OpenFOAM: The Open Source CFD Toolbox
   \\    /   O peration     | Website:  https://openfoam.org
    \\  /    A nd           | Version:  dev
     \\/     M anipulation  |
\*---------------------------------------------------------------------------*/
FoamFile
{
    format      ascii;
    class       dictionary;
    object      molConfigDict;
}

// * * * * * * * * * * * * * * * * * * * * * * * * * * * * * * * * * * * * * //

// Euler angles, expressed in degrees as phi, theta, psi, see
// http://mathworld.wolfram.com/EulerAngles.html

sectionA
{
    massDensity             1004;
    temperature             298;
    bulkVelocity            (0.0 0.0 0.0);
    latticeIds
    (
        water
    );
    tetherSiteIds           ();
    latticePositions
    (
        (0 0 0)
    );
    anchor                  (0 0 0);
    orientationAngles       (0 0 0);
    latticeCellShape        (1 1 1);
}

sectionB
{
    massDensity             1004;
    temperature             298;
    bulkVelocity            (0.0 0.0 0.0);
    latticeIds
    (
        water
    );
    tetherSiteIds           ();
    latticePositions
    (
        (0 0 0)
    );
    anchor                  (0 0 0);
    orientationAngles       (0 0 0);
    latticeCellShape        (1 1 1);
}

sectionC
{
    massDensity             1004;
    temperature             298;
    bulkVelocity            (0.0 0.0 0.0);
    latticeIds
    (
        water
    );
    tetherSiteIds           ();
    latticePositions
    (
        (0 0 0)
    );
    anchor                  (0 0 0);
    orientationAngles       (0 0 0);
    latticeCellShape        (1 1 1);
}

// ************************************************************************* //
