/*--------------------------------*- C++ -*----------------------------------*\
  =========                 |
  \\      /  F ield         | OpenFOAM: The Open Source CFD Toolbox
   \\    /   O peration     | Website:  https://openfoam.org
    \\  /    A nd           | Version:  dev
     \\/     M anipulation  |
\*---------------------------------------------------------------------------*/
FoamFile
{
    format      ascii;
    class       dictionary;
    location    "constant";
    object      cloudProperties;
}
// * * * * * * * * * * * * * * * * * * * * * * * * * * * * * * * * * * * * * //

type        reactingCloud;

solution
{
    coupled         true;
    transient       yes;
    cellValueSourceCorrection on;
    maxCo           0.3;

    sourceTerms
    {
        schemes
        {
            rho             explicit 1;
            U               explicit 1;
            Yi              explicit 1;
            h               explicit 1;
            radiation       explicit 1;
        }
    }

    interpolationSchemes
    {
        rho             cell;
        U               cellPoint;
        mu              cell;
        T               cell;
        Cp              cell;
        kappa           cell;
        p               cell;
    }

    integrationSchemes
    {
        U               Euler;
        T               analytical;
    }
}


constantProperties
{
    rho0            1000;
    T0              300;
    Cp0             4100;

    constantVolume  false;
}


subModels
{
    particleForces
    {
        sphereDrag;
        gravity;
    }

    injectionModels
    {
        model1
        {
            type            reactingLookupTableInjection;
            massTotal       1e-2;
            parcelBasisType mass;
            SOI             0.5;
            inputFile       "parcelInjectionProperties";
            duration        1.0;
            parcelsPerSecond 250;
            randomise       true;
        }
    }

    dispersionModel none;

    patchInteractionModel localInteraction;

    heatTransferModel RanzMarshall;

    compositionModel singlePhaseMixture;

    phaseChangeModel liquidEvaporation;

    stochasticCollisionModel none;

    surfaceFilmModel none;

    radiation       off;

    localInteractionCoeffs
    {
        patches
        (
            walls
            {
                type        rebound;
            }

            "cycRight.*"
            {
                patchType   cyclic;
                type        rebound;
            }

            "inlet|outlet"
            {
                type        escape;
            }
        );
    }

    RanzMarshallCoeffs
    {
        BirdCorrection  true;
    }

    singlePhaseMixtureCoeffs
    {
        phases
        (
            liquid
            {
                H2O         1;
            }
        );
    }

    liquidEvaporationCoeffs
    {
        enthalpyTransfer enthalpyDifference;

        activeLiquids   ( H2O );
    }
}


cloudFunctions
{
    patchPostProcessing1
    {
        type            patchPostProcessing;
        maxStoredParcels 20;
        patches
        (
            cycLeft_half0
            cycLeft_half1
            cycRight_half0
            cycRight_half1
        );
    }

    facePostProcessing1
    {
        type            facePostProcessing;
        surfaceFormat   vtk;
        resetOnWrite    no;
        log             yes;

        faceZones
        (
            cycLeft
            cycRight
        );
    }
}


// ************************************************************************* //
