/*--------------------------------*- C++ -*----------------------------------*\
  =========                 |
  \\      /  F ield         | OpenFOAM: The Open Source CFD Toolbox
   \\    /   O peration     | Website:  https://openfoam.org
    \\  /    A nd           | Version:  dev
     \\/     M anipulation  |
\*---------------------------------------------------------------------------*/
FoamFile
{
    format      ascii;
    class       dictionary;
    object      blockMeshDict;
}
// * * * * * * * * * * * * * * * * * * * * * * * * * * * * * * * * * * * * * //

convertToMeters 1;

vertices
(
    (0 0 0)
    (0.15 0 0)
    (0.15 1 0)
    (0 1 0)
    (0 0 0.1)
    (0.15 0 0.1)
    (0.15 1 0.1)
    (0 1 0.1)
);

blocks
(
    hex (0 1 2 3 4 5 6 7) (25 75 1) simpleGrading (1 1 1)
);

defaultPatch
{
    type empty;
}

boundary
(
    inlet
    {
        type patch;
        faces
        (
            (1 5 4 0)
        );
    }

    outlet
    {
        type patch;
        faces
        (
            (3 7 6 2)
        );
    }

    walls
    {
        type wall;
        faces
        (
            (0 4 7 3)
            (2 6 5 1)
        );
    }
);


// ************************************************************************* //
