/*--------------------------------*- C++ -*----------------------------------*\
  =========                 |
  \\      /  F ield         | OpenFOAM: The Open Source CFD Toolbox
   \\    /   O peration     | Website:  https://openfoam.org
    \\  /    A nd           | Version:  dev
     \\/     M anipulation  |
\*---------------------------------------------------------------------------*/
FoamFile
{
    version     2.0;
    format      ascii;
    class       volScalarField;
    object      T;
}
// * * * * * * * * * * * * * * * * * * * * * * * * * * * * * * * * * * * * * //

dimensions      [0 0 0 1 0 0 0];

internalField   uniform 300;

boundaryField
{
    floor
    {
        type            fixedValue;
        value           uniform 300.0;
    }

    ceiling
    {
        type            fixedValue;
        value           uniform 300.0;
    }

    fixedWalls
    {
        type            zeroGradient;
    }

    box
    {
        type            fixedValue;
        value           uniform 500.0;
    }
}

// ************************************************************************* //
