/*--------------------------------*- C++ -*----------------------------------*\
  =========                 |
  \\      /  F ield         | OpenFOAM: The Open Source CFD Toolbox
   \\    /   O peration     | Website:  https://openfoam.org
    \\  /    A nd           | Version:  dev
     \\/     M anipulation  |
\*---------------------------------------------------------------------------*/
FoamFile
{
    version     2.0;
    format      ascii;
    class       vectorField;
    object      cloudPositions;
}
// * * * * * * * * * * * * * * * * * * * * * * * * * * * * * * * * * * * * * //

(
(-0.007603 -0.000496 0.186242)
(0.005296 0.002961 0.249746)
(-0.003631 0.006625 0.222195)
(0.003463 0.007655 0.252834)
(-0.000193 -0.005658 0.248415)
(-0.003550 0.002809 0.174872)
(0.009027 0.008018 0.046837)
(-0.004634 -0.007571 0.253276)
(-0.007939 0.007436 0.149918)
(0.006590 0.006213 0.222370)
(-0.006731 -0.000662 0.165514)
(-0.008975 -0.006064 0.057685)
(0.004256 -0.008315 0.021390)
(-0.006722 0.006600 0.283040)
(-0.007295 0.000892 0.071601)
(-0.002414 -0.000567 0.009041)
(0.006973 0.006156 0.063900)
(0.006231 0.007762 0.044097)
(0.005540 0.005797 0.209102)
(0.002454 0.001138 0.146698)
(-0.007521 0.007371 0.009158)
(-0.004755 -0.004976 0.014585)
(-0.007842 0.006545 0.052000)
(0.005661 0.006317 0.003238)
(0.003626 0.001812 0.291785)
(0.008115 -0.007354 0.204002)
(0.002115 0.006613 0.240605)
(-0.000511 0.006445 0.254471)
(0.007178 -0.004356 0.274487)
(-0.008346 0.003370 0.299902)
(0.008936 0.000163 0.031491)
(-0.000712 -0.005933 0.175032)
(-0.000043 0.007958 0.053348)
(-0.001838 0.005946 0.206753)
(0.005476 -0.003146 0.013053)
(0.007495 0.003946 0.077224)
(0.005286 0.007725 0.021804)
(-0.004363 0.006779 0.118588)
(0.002750 0.007193 0.064800)
(0.007731 0.003853 0.157675)
(-0.005032 -0.006406 0.273652)
(-0.004435 0.005790 0.008037)
(0.003889 0.005180 0.140469)
(0.000349 -0.003737 0.019915)
(0.006767 0.005217 0.001389)
(-0.001437 0.007885 0.001659)
(0.004885 0.000983 0.039324)
(0.007492 -0.004747 0.216493)
(-0.003164 0.001354 0.113280)
(0.007488 0.008913 0.208388)
(0.006644 -0.001038 0.262499)
(0.001757 -0.008763 0.183613)
(-0.005182 0.008530 0.217370)
(-0.002919 -0.003235 0.137830)
(-0.003657 -0.004763 0.105567)
(-0.000395 0.008680 0.107329)
(0.003865 -0.001219 0.204188)
(0.003060 0.006020 0.120016)
(0.003798 0.007917 0.169609)
(0.005715 -0.001379 0.241563)
(-0.002788 0.006584 0.065112)
(0.003801 0.007753 0.140773)
(0.000357 -0.004884 0.248645)
(-0.007648 0.003336 0.170331)
(-0.001215 -0.006612 0.062768)
(-0.001702 0.001762 0.276526)
(-0.002756 -0.008567 0.180954)
(0.004651 0.007550 0.078562)
(-0.007210 0.001308 0.219866)
(-0.007978 0.000766 0.105603)
(-0.004335 -0.004064 0.148935)
(-0.003113 0.002860 0.052422)
(0.000491 0.008725 0.020609)
(-0.007964 -0.000847 0.083414)
(-0.003764 0.008425 0.078343)
(-0.001991 0.001324 0.183160)
(-0.006127 0.004721 0.220177)
(-0.008995 -0.001952 0.241865)
(0.001529 -0.003015 0.005323)
(-0.003013 -0.006966 0.037501)
(-0.006081 0.000230 0.029188)
(-0.000596 0.003942 0.073891)
(-0.000807 -0.003579 0.004964)
(-0.001712 -0.001016 0.011441)
(-0.007438 0.006134 0.162856)
(-0.005150 -0.001534 0.160114)
(-0.006203 0.002055 0.041237)
(0.000651 -0.007232 0.092247)
(-0.001916 -0.000603 0.030022)
(0.004566 0.002462 0.070144)
(-0.007156 0.004003 0.277508)
(-0.008650 -0.001542 0.037296)
(-0.007581 0.005454 0.094709)
(0.005570 0.004826 0.096120)
(-0.004889 0.000250 0.286516)
(-0.002246 -0.000626 0.281994)
(-0.005707 -0.005777 0.176166)
(-0.005464 0.003902 0.118605)
(0.000622 -0.004811 0.126102)
(-0.007530 0.006553 0.066062)
(0.002534 0.001785 0.099779)
(-0.002617 0.003680 0.175780)
(-0.005968 -0.002552 0.249858)
(0.006410 -0.004529 0.059153)
(-0.004893 0.005682 0.196030)
(0.008919 -0.006259 0.194256)
(0.003321 0.002499 0.094215)
(-0.004268 0.003281 0.227810)
(0.007704 -0.007761 0.296289)
(-0.006205 -0.007076 0.084507)
(0.004192 0.007977 0.264713)
(0.000376 0.004661 0.174366)
(0.002564 -0.003005 0.151533)
(0.004754 0.000492 0.142922)
(0.007431 0.003388 0.050819)
(-0.003880 0.004680 0.222662)
(-0.001443 -0.003874 0.091636)
(0.008633 -0.001677 0.096070)
(0.004056 -0.005587 0.184848)
(0.006049 0.000301 0.036035)
(0.003572 -0.002294 0.278810)
(-0.000320 0.006516 0.190664)
(-0.004717 0.000846 0.259795)
(0.005079 0.005766 0.094034)
(0.007055 -0.002091 0.150629)
(-0.004568 -0.001220 0.244729)
(-0.007494 -0.004358 0.090059)
(-0.007521 -0.004612 0.280762)
(0.002626 -0.005462 0.086975)
(-0.001346 -0.006456 0.285513)
(0.003525 -0.008089 0.125590)
(0.000358 0.002639 0.286511)
(0.000043 -0.005369 0.042436)
(0.006821 -0.002250 0.221078)
(0.002971 -0.006829 0.175609)
(0.005572 -0.001736 0.065781)
(-0.001033 -0.004852 0.076080)
(-0.003897 -0.008214 0.201234)
(0.006790 -0.007501 0.023214)
(0.002794 0.007390 0.149217)
(-0.007600 0.008359 0.047332)
(-0.009171 0.002081 0.175130)
(0.003707 -0.004297 0.081697)
(-0.002253 0.007408 0.288633)
(-0.003521 -0.001626 0.146564)
(0.008478 0.002226 0.157429)
(0.004217 0.008771 0.295844)
(0.005893 -0.008935 0.098997)
(0.001892 -0.001807 0.047893)
(-0.001298 -0.005969 0.283680)
(0.007287 0.008985 0.192547)
(0.006137 -0.001888 0.257374)
(0.007998 0.003982 0.042169)
(0.003944 -0.002649 0.130659)
(-0.006281 0.001943 0.187836)
(-0.003270 -0.001103 0.072314)
(0.003407 0.007087 0.166511)
(-0.000278 0.006607 0.133563)
(-0.000274 -0.001671 0.248073)
(-0.006962 -0.005759 0.082289)
(-0.000802 -0.006960 0.210051)
(-0.000631 -0.005187 0.259750)
(-0.005557 -0.008470 0.274329)
(-0.007001 0.003070 0.116547)
(-0.001779 0.004419 0.273787)
(-0.001293 -0.007403 0.020943)
(-0.007997 -0.002519 0.284823)
(-0.008872 -0.007283 0.299350)
(-0.000278 -0.000048 0.233613)
(-0.006301 0.008206 0.278879)
(-0.000308 0.009166 0.062436)
(-0.004728 0.002919 0.073166)
(-0.003873 0.002577 0.048642)
(-0.008828 0.006533 0.095791)
(-0.003985 -0.004216 0.249906)
(0.002349 0.006360 0.161905)
(-0.002583 -0.002879 0.171235)
(-0.002490 0.002131 0.257644)
(-0.006938 -0.005113 0.093949)
(0.001388 -0.001899 0.263049)
(0.007988 0.006491 0.138814)
(-0.006481 0.004512 0.163290)
(0.007662 0.000929 0.214017)
(-0.005462 0.006698 0.161809)
(0.003886 0.001981 0.284439)
(-0.006672 0.005934 0.214858)
(-0.000830 -0.001064 0.237824)
(0.007983 0.002734 0.217806)
(-0.007639 -0.003876 0.185440)
(-0.004066 0.008598 0.117065)
(-0.008186 0.003336 0.034855)
(0.005498 0.001506 0.237269)
(0.002012 0.005537 0.198764)
(0.001740 0.009099 0.071125)
(-0.007697 0.006834 0.036896)
(-0.003192 -0.005670 0.180136)
(0.001843 0.001158 0.138667)
(0.009005 -0.007654 0.206782)
(-0.001546 -0.001787 0.204637)
(0.008116 -0.000105 0.256273)
(0.008452 0.001680 0.102491)
(0.004735 -0.007652 0.088774)
(-0.005370 0.008861 0.220812)
(0.001763 -0.001299 0.131596)
(0.004063 -0.007582 0.009704)
(0.006784 -0.003544 0.284850)
(-0.001629 0.006092 0.029807)
(0.003185 -0.001678 0.006145)
(0.006831 0.003500 0.039226)
(0.003561 0.001337 0.090469)
(0.000259 -0.003259 0.246584)
(-0.000414 0.008034 0.006445)
(-0.006052 0.004561 0.104040)
(-0.001452 -0.006880 0.093051)
(0.001417 -0.001488 0.265632)
(0.002877 0.004115 0.007531)
(-0.006337 -0.007670 0.158821)
(0.009020 -0.008383 0.018769)
(0.006048 -0.004802 0.098364)
(0.002108 -0.004723 0.279485)
(-0.006813 0.008168 0.212270)
(-0.001039 0.005326 0.177769)
(0.007077 -0.000132 0.191694)
(0.004548 -0.004659 0.097538)
(0.007220 -0.007006 0.201470)
(0.004278 -0.005813 0.018147)
(0.002856 -0.000158 0.186330)
(-0.008499 -0.005505 0.022110)
(-0.007917 0.007410 0.262015)
(0.005816 -0.004470 0.054877)
(-0.001499 -0.007220 0.018201)
(0.005888 -0.004293 0.274622)
(-0.000331 -0.001995 0.042927)
(0.001624 -0.002574 0.051988)
(0.006659 0.006115 0.009668)
(-0.005785 -0.000438 0.022161)
(-0.003457 0.000861 0.082264)
(0.005406 -0.003315 0.238068)
(-0.006326 0.006476 0.197348)
(-0.004375 0.004152 0.185870)
(0.005661 0.002516 0.096299)
(-0.000708 0.003562 0.054555)
(0.009062 -0.004745 0.258239)
(-0.000513 -0.000099 0.140648)
(-0.002772 0.001245 0.223972)
(-0.008937 -0.006767 0.101588)
(0.006291 -0.000035 0.199275)
(0.007971 -0.000667 0.238104)
(0.006729 0.005023 0.198438)
(-0.005718 0.008283 0.222749)
(-0.003110 0.004071 0.080144)
(-0.001074 0.000005 0.014766)
(-0.002222 -0.008725 0.144642)
(0.005542 -0.003213 0.189429)
(0.000569 0.004670 0.252624)
(-0.002824 -0.002473 0.296240)
(-0.000557 0.003607 0.144514)
(-0.005131 -0.001635 0.148194)
(-0.003865 -0.008536 0.102420)
(0.002844 0.004955 0.089480)
(-0.000892 -0.002664 0.156927)
(-0.002021 -0.005469 0.183029)
(0.006725 -0.002435 0.169736)
(-0.005911 0.002943 0.026960)
(-0.005365 -0.004136 0.136077)
(-0.003765 0.000737 0.101309)
(-0.001168 -0.003802 0.139897)
(-0.004978 -0.006666 0.111121)
(0.003746 0.007709 0.134546)
(-0.003467 -0.001184 0.181779)
(-0.005213 0.000975 0.043786)
(0.004106 0.004810 0.008807)
(0.003723 -0.007507 0.122882)
(0.000628 0.002943 0.273886)
(-0.005746 0.004052 0.296133)
(0.007369 0.003200 0.033453)
(0.006347 -0.007280 0.170628)
(0.003858 0.000719 0.019229)
(-0.001388 -0.008885 0.079684)
(0.001938 0.001634 0.146816)
(-0.008953 -0.003826 0.085269)
(0.001625 0.006734 0.127224)
(-0.004965 0.008844 0.027601)
(0.006689 -0.000685 0.253041)
(0.002159 0.009197 0.155869)
(0.007018 0.003490 0.188810)
(0.000995 0.003909 0.094967)
(-0.005214 0.000280 0.186452)
(0.003675 0.002569 0.167221)
(0.009138 0.000895 0.261714)
(-0.007229 -0.002234 0.021164)
(-0.004776 0.007833 0.274430)
(-0.005291 -0.000788 0.019465)
(-0.003825 -0.006319 0.050313)
(0.004369 -0.004902 0.111862)
(-0.004335 0.000019 0.098492)
(0.007533 -0.003383 0.151749)
(-0.001773 0.008721 0.027240)
(0.004363 -0.007362 0.246169)
(-0.001323 -0.004475 0.099407)
(-0.001643 0.002799 0.148456)
(-0.007368 -0.000635 0.169815)
(0.005427 -0.004141 0.047154)
(0.003013 0.006762 0.002705)
(0.005703 0.001152 0.241008)
(0.001789 -0.006532 0.146955)
(-0.004209 0.002508 0.126831)
(-0.006047 -0.007464 0.126559)
(0.001337 0.003150 0.288380)
(0.004450 0.000690 0.048622)
(-0.004617 -0.004059 0.156989)
(0.009138 -0.007880 0.265293)
(0.001674 0.001990 0.172216)
(-0.003067 0.005468 0.199072)
(-0.002530 -0.001559 0.108142)
(0.006519 0.002411 0.103932)
(-0.007573 0.008612 0.047343)
(-0.002965 -0.005109 0.050260)
(-0.005655 0.000528 0.092682)
(0.002019 0.006355 0.027430)
(0.008614 0.004093 0.283046)
(0.005047 -0.000219 0.286349)
(0.008269 0.002909 0.122652)
(0.004549 -0.009092 0.236052)
(-0.004951 -0.000718 0.038537)
(-0.005079 0.002660 0.199585)
(0.006644 0.003658 0.092524)
(0.004406 -0.000255 0.278267)
(0.000440 0.006720 0.164549)
(0.005641 -0.006037 0.244308)
(-0.001716 0.000767 0.058793)
(0.004639 0.000711 0.263521)
(0.000009 0.005851 0.096401)
(-0.003198 -0.002321 0.149258)
(0.005190 0.004563 0.292731)
(-0.008701 0.006865 0.115457)
(0.003416 -0.002082 0.261791)
(-0.005357 -0.002436 0.285317)
(-0.006485 0.002100 0.063360)
(0.000116 0.000539 0.108143)
(-0.004927 -0.007145 0.040329)
(0.006300 0.007708 0.281787)
(-0.004117 0.007107 0.256734)
(0.002828 -0.006517 0.056873)
(0.002090 -0.008587 0.156567)
(0.005385 -0.003512 0.230073)
(-0.003930 0.000457 0.062085)
(0.005146 -0.000973 0.057132)
(0.004450 -0.004109 0.123312)
(-0.007191 -0.006819 0.194615)
(-0.001593 -0.006450 0.197371)
(0.007780 -0.007760 0.135853)
(-0.007577 0.007181 0.074607)
(-0.009079 0.005985 0.199507)
(0.007177 0.007467 0.111609)
(0.008806 0.006073 0.153772)
(0.005814 -0.004375 0.248474)
(-0.001920 -0.001018 0.243562)
(0.000180 -0.005503 0.245061)
(-0.007501 -0.006774 0.207001)
(0.004767 -0.002201 0.119621)
(0.001656 -0.008529 0.276289)
(-0.005227 -0.003370 0.059549)
(0.005368 -0.008235 0.001010)
(0.005379 0.008440 0.269684)
(-0.002393 0.002763 0.294382)
(0.002976 -0.002093 0.247512)
(0.006864 -0.000793 0.299603)
(0.002662 0.004390 0.270140)
(0.005803 -0.006822 0.220986)
(0.000193 0.002295 0.252202)
(-0.001081 -0.007068 0.199619)
(-0.002922 0.004590 0.178819)
(0.008404 0.002105 0.109351)
(0.005201 0.000833 0.236958)
(0.006379 0.005425 0.111728)
(0.000462 -0.007023 0.023668)
(0.006668 0.002034 0.133608)
(0.006927 -0.005793 0.225180)
(-0.004957 -0.001158 0.207177)
(-0.005211 -0.000567 0.119194)
(-0.005634 0.007391 0.251137)
(-0.006012 0.008331 0.060611)
(-0.001878 0.002744 0.228010)
(0.002742 -0.008148 0.019026)
(0.008204 -0.006256 0.093529)
(0.000393 -0.006070 0.178929)
(-0.004356 -0.002873 0.218605)
(-0.009136 -0.005236 0.286827)
(-0.006380 -0.007291 0.093903)
(0.008327 -0.002300 0.052768)
(0.006655 0.003652 0.281634)
(-0.001790 0.002679 0.140179)
(-0.002940 0.000129 0.226517)
(0.001146 0.001271 0.125602)
(0.003883 -0.004187 0.221519)
(-0.007291 0.007834 0.151288)
(-0.000212 0.001285 0.212410)
(-0.008586 0.001273 0.244139)
(0.002322 0.005759 0.197555)
(-0.004640 -0.004786 0.242559)
(-0.006633 0.000356 0.294254)
(0.003821 -0.005201 0.128764)
(0.004056 0.002555 0.052241)
(0.004596 -0.003053 0.241428)
(0.003253 0.007813 0.235678)
(0.003178 -0.006132 0.045812)
(0.007146 -0.002324 0.036174)
(0.004717 -0.004802 0.288897)
(0.008257 0.007921 0.197041)
(-0.006743 0.008484 0.282840)
(-0.007371 0.002442 0.192925)
(-0.003891 0.007283 0.039671)
(-0.002063 0.005768 0.071992)
(-0.008332 -0.000036 0.160639)
(0.003940 -0.005970 0.090367)
(-0.003067 0.008190 0.168870)
(-0.003621 -0.008306 0.066531)
(0.003143 -0.006900 0.061724)
(-0.001911 -0.005009 0.014392)
(-0.000898 0.005422 0.086393)
(-0.002145 0.009083 0.068639)
(-0.004681 -0.006909 0.132889)
(-0.007433 -0.002008 0.256634)
(0.005447 0.005674 0.279417)
(-0.003702 0.008352 0.011667)
(-0.005500 -0.007130 0.165509)
(-0.003915 0.000215 0.269009)
(0.003899 0.001922 0.161651)
(0.006853 -0.004945 0.100257)
(-0.003509 0.002404 0.259351)
(-0.005620 -0.002193 0.024711)
(0.008618 0.005490 0.295663)
(0.005549 0.008573 0.167296)
(-0.000914 -0.004349 0.200058)
(-0.003628 -0.002137 0.079478)
(0.000966 0.001869 0.157038)
(-0.001384 -0.001768 0.054855)
(0.006631 -0.003228 0.052352)
(-0.001303 0.007921 0.192285)
(-0.001729 -0.005454 0.223827)
(-0.002138 0.004224 0.232440)
(-0.008081 0.005926 0.207588)
(0.007563 0.007302 0.030759)
(0.007780 0.002208 0.084026)
(-0.000358 -0.004157 0.129460)
(0.009104 -0.001717 0.204205)
(0.006683 0.008634 0.042872)
(-0.005012 -0.001011 0.258274)
(-0.002392 -0.001281 0.180826)
(-0.008612 0.002047 0.091501)
(0.003110 0.003492 0.010375)
(-0.002068 0.006377 0.132372)
(0.005987 -0.007830 0.227020)
(0.008090 0.000078 0.040284)
(-0.000281 -0.007064 0.066700)
(-0.005761 0.004273 0.015352)
(0.004801 0.000061 0.271771)
(-0.004052 0.005836 0.108531)
(-0.000028 0.003773 0.042179)
(0.003220 0.005494 0.192229)
(-0.003568 0.004249 0.017460)
(-0.002812 -0.006033 0.237890)
(0.005173 0.000541 0.067307)
(0.002394 0.008091 0.247774)
(-0.003373 0.005339 0.049098)
(-0.006004 -0.005866 0.146369)
(0.002083 0.008174 0.237992)
(-0.002309 0.006658 0.266958)
(-0.007444 0.000064 0.049472)
(-0.004630 0.006894 0.132674)
(0.006993 -0.002323 0.117625)
(-0.001250 0.004285 0.075425)
(-0.004936 0.005017 0.240927)
(0.002939 0.003670 0.093481)
(0.000512 0.008464 0.060912)
(-0.000809 0.005963 0.123959)
(0.001691 0.006138 0.288240)
(-0.004825 -0.002917 0.172624)
(-0.000049 0.007995 0.067829)
(0.005390 -0.006183 0.009330)
(-0.004547 -0.001826 0.076453)
(0.001483 0.008041 0.078158)
(-0.004139 0.006466 0.230786)
(0.001849 0.004628 0.021197)
(-0.007489 0.004027 0.113695)
(0.003684 0.004305 0.220418)
(-0.005866 -0.002058 0.112495)
(0.005394 -0.009177 0.180149)
(0.008557 0.003322 0.173663)
(0.001796 -0.000335 0.236852)
(0.001260 0.008021 0.114986)
(0.005719 0.007907 0.066219)
(-0.007215 -0.004121 0.038967)
(0.002256 0.006636 0.124841)
(0.003063 -0.004923 0.257385)
(0.002840 0.007370 0.280869)
(0.004912 -0.006870 0.269247)
(-0.003280 0.003432 0.211764)
(0.003746 -0.000114 0.218201)
(0.009058 -0.006072 0.039159)
(0.002869 0.000974 0.146745)
(-0.004040 -0.001956 0.215817)
(-0.004804 0.005469 0.201949)
(-0.002582 -0.003867 0.055089)
(0.002105 0.005549 0.061116)
(0.001854 0.000461 0.153496)
(-0.006304 -0.002802 0.022402)
(0.004111 0.006038 0.147316)
(-0.001835 -0.000553 0.231915)
(0.001480 0.009123 0.125499)
(0.002651 -0.008525 0.267480)
(0.007223 0.004515 0.094210)
(0.005718 0.006003 0.020011)
(0.002254 0.000434 0.058197)
(0.004999 0.002064 0.033889)
(0.007251 -0.005265 0.013418)
(-0.009069 0.001348 0.238670)
(0.001797 -0.003095 0.239981)
(-0.003001 0.003959 0.262843)
(0.008150 -0.002993 0.061769)
(-0.003404 0.008985 0.224856)
(-0.000728 0.000801 0.240348)
(0.004929 0.002193 0.293863)
(0.006670 0.000752 0.034952)
(-0.004564 -0.008243 0.011533)
(-0.004147 0.005051 0.100884)
(0.007530 0.003794 0.295255)
(-0.007196 -0.005796 0.255558)
(0.000229 -0.004946 0.175874)
(-0.000282 0.008139 0.272376)
(-0.007000 -0.002415 0.228054)
(-0.009013 0.008931 0.019476)
(0.003802 -0.002050 0.208987)
(-0.008574 0.006910 0.285466)
(0.000064 -0.008777 0.034638)
(0.009044 0.008901 0.228143)
(-0.000741 -0.009175 0.200185)
(0.002352 -0.006970 0.127781)
(-0.000389 -0.000282 0.285779)
(0.008309 -0.002201 0.017290)
(-0.001191 0.002689 0.196755)
(-0.005566 -0.007903 0.260822)
(0.007070 0.002160 0.294050)
(-0.005649 -0.003331 0.031638)
(0.000154 0.005793 0.069911)
(0.001687 0.006828 0.116464)
(-0.002776 0.007811 0.137797)
(-0.007706 0.008965 0.243956)
(-0.004958 0.007193 0.021336)
(0.000918 -0.004716 0.066282)
(0.008255 -0.005852 0.128155)
(0.007628 -0.000793 0.203271)
(-0.005123 0.000321 0.122875)
(-0.002279 0.005258 0.217195)
(0.003408 -0.000027 0.173280)
(0.008131 -0.008428 0.101596)
(-0.007519 0.001339 0.138122)
(0.009185 -0.002428 0.038955)
(0.002438 -0.008935 0.268091)
(-0.004633 -0.001348 0.024629)
(0.007115 0.001669 0.197967)
(-0.000815 0.001787 0.194391)
(-0.001211 0.007325 0.222719)
(0.001986 0.004507 0.255980)
(0.009013 0.007866 0.133194)
(0.002196 -0.002218 0.245830)
(-0.007076 -0.001892 0.145104)
(0.005068 0.001367 0.154117)
(-0.004510 -0.006796 0.023912)
(0.006092 -0.003801 0.017510)
(-0.007916 -0.008248 0.023889)
(-0.001491 -0.005825 0.171324)
(0.008486 0.004385 0.216005)
(-0.002223 0.001436 0.290782)
(-0.006529 0.002342 0.041046)
(0.002484 0.007649 0.265743)
(-0.003117 -0.006216 0.105566)
(-0.008804 0.002406 0.091529)
(0.001865 -0.002323 0.130463)
(-0.001145 0.000117 0.265172)
(0.004255 -0.007642 0.140604)
(-0.006635 -0.008103 0.002780)
(-0.005619 -0.009110 0.118115)
(-0.005568 0.008493 0.210288)
(-0.003455 -0.008544 0.059645)
(-0.006808 -0.001982 0.039653)
(-0.008323 0.001500 0.151535)
(0.002702 0.008540 0.286533)
(-0.002655 0.000373 0.068472)
(0.003763 0.000944 0.021237)
(0.008880 0.005509 0.255063)
(0.001419 0.006495 0.277089)
(0.001072 0.001729 0.152906)
(-0.007703 0.001869 0.281131)
(-0.001157 0.003032 0.025395)
(-0.004774 0.008632 0.165836)
(0.007970 -0.002619 0.285675)
(-0.005363 -0.000177 0.170289)
(-0.004156 0.004873 0.202999)
(0.003317 -0.008505 0.071772)
(-0.003168 -0.002447 0.182490)
(-0.005912 -0.001441 0.140051)
(-0.000282 -0.000116 0.229678)
(-0.003163 0.002972 0.024329)
(0.003106 0.001630 0.271987)
(0.005837 0.001426 0.043458)
(0.006243 0.007714 0.159252)
(0.003488 -0.005865 0.266576)
(-0.002334 0.006572 0.157311)
(0.003183 -0.004935 0.156259)
(0.005759 -0.005868 0.247938)
(-0.004936 -0.008438 0.000472)
(-0.003034 -0.001366 0.192524)
(0.002955 -0.008062 0.036975)
(0.005279 -0.003985 0.189530)
(0.006469 -0.001629 0.030891)
(-0.002802 -0.002115 0.058439)
(0.008951 -0.003300 0.246030)
(-0.000627 -0.003577 0.130358)
(-0.007855 -0.006260 0.265988)
(-0.004695 0.008305 0.048802)
(-0.003969 0.001060 0.076232)
(-0.001438 -0.004967 0.240960)
(-0.007133 0.001785 0.023851)
(0.004003 -0.001024 0.278419)
(-0.000384 -0.001936 0.049936)
(-0.003554 -0.002260 0.282330)
(-0.003328 -0.005779 0.240284)
(0.004417 0.006892 0.097055)
(0.008791 -0.004387 0.109741)
(0.007138 -0.008522 0.277552)
(0.000101 -0.005432 0.061125)
(-0.008092 -0.002676 0.022025)
(0.003116 -0.008273 0.294979)
(0.002975 -0.004024 0.226061)
(-0.004407 0.001385 0.039787)
(-0.000346 -0.002587 0.130952)
(-0.000973 -0.001102 0.033684)
(0.006195 -0.002649 0.272895)
(0.003947 0.008484 0.178714)
(-0.004536 0.003587 0.109392)
(0.003613 0.001563 0.296259)
(0.000864 -0.003124 0.150511)
(-0.005825 0.001804 0.066675)
(-0.007254 -0.003788 0.200488)
(-0.002217 -0.006143 0.042990)
(0.001171 -0.002710 0.251131)
(-0.003211 0.004515 0.159253)
(0.005035 -0.004445 0.003073)
(0.002024 0.008822 0.176063)
(-0.002289 0.002347 0.152776)
(0.006286 -0.006298 0.014706)
(-0.008247 0.003519 0.150834)
(-0.008303 -0.005457 0.276704)
(0.003331 0.006514 0.104106)
(0.001168 -0.007490 0.297345)
(-0.008635 0.002166 0.153565)
(-0.004151 0.007013 0.196470)
(0.005833 -0.002364 0.146831)
(-0.005559 0.007137 0.012463)
(-0.004116 0.008686 0.125115)
(-0.002545 0.005813 0.274103)
(0.006278 -0.001462 0.256781)
(-0.006020 -0.008266 0.096468)
(-0.000392 0.000796 0.156411)
(-0.008834 0.004771 0.176102)
(0.007814 0.007154 0.282011)
(0.004996 -0.006837 0.277302)
(0.006929 0.004986 0.143024)
(0.004509 0.002701 0.075416)
(0.008127 -0.006294 0.199544)
(-0.000472 -0.006452 0.114108)
(0.007775 -0.002048 0.272656)
(0.000523 0.007641 0.116749)
(0.002051 0.008618 0.013351)
(-0.008183 -0.008434 0.247169)
(-0.003321 -0.006463 0.225986)
(0.007434 -0.000675 0.219606)
(-0.000809 0.005823 0.045748)
(-0.005064 -0.004202 0.163098)
(-0.006139 0.005005 0.013327)
(-0.001750 -0.004616 0.001842)
(-0.007049 -0.004403 0.053379)
(0.009004 -0.000530 0.087518)
(-0.001339 -0.002788 0.195617)
(-0.008463 -0.001605 0.119450)
(0.006161 -0.007405 0.193670)
(-0.009129 0.007705 0.211984)
(0.007713 -0.000477 0.016947)
(0.007265 -0.008093 0.201673)
(-0.003814 -0.005250 0.044530)
(-0.005512 -0.004229 0.152716)
(0.005513 0.006628 0.049307)
(-0.000327 -0.002136 0.095001)
(0.003518 0.002390 0.253156)
(0.009024 -0.002035 0.232816)
(0.003067 0.007594 0.179014)
(-0.006276 0.008729 0.025947)
(-0.003489 0.007472 0.267471)
(0.001580 0.008948 0.111826)
(-0.003561 0.007318 0.098371)
(0.004131 -0.003408 0.267806)
(0.001943 0.004293 0.284358)
(0.008274 0.001402 0.219856)
(0.003481 0.006255 0.299153)
(-0.004864 -0.008849 0.259707)
(-0.002725 -0.004171 0.079088)
(-0.006624 -0.001826 0.085203)
(0.002333 0.006832 0.113885)
(0.006293 -0.002835 0.148078)
(0.008372 0.006315 0.254278)
(0.006386 -0.006921 0.024939)
(-0.003129 -0.009048 0.226603)
(0.005504 -0.006745 0.105748)
(-0.000177 -0.004881 0.131919)
(0.007017 0.001216 0.286806)
(0.001782 -0.003570 0.224245)
(0.006293 -0.008357 0.269119)
(0.004544 -0.003109 0.011313)
(-0.007933 0.000631 0.028972)
(-0.007605 0.002197 0.234899)
(-0.003500 0.003336 0.275650)
(-0.003182 -0.006990 0.202404)
(0.001581 -0.007172 0.289520)
(0.004434 -0.008157 0.206173)
(0.001122 -0.003289 0.090021)
(-0.008118 -0.004694 0.109994)
(0.008592 0.008198 0.156864)
(-0.002162 -0.005433 0.295363)
(-0.000631 -0.002502 0.051801)
(0.002839 0.004650 0.105561)
(-0.008457 0.001402 0.016752)
(0.004128 0.000885 0.196514)
(0.005507 0.006984 0.022344)
(0.006561 0.006256 0.040581)
(0.005791 0.007202 0.134764)
(-0.002828 0.002291 0.204992)
(0.001837 0.003198 0.248429)
(-0.001945 0.008266 0.240026)
(-0.006270 -0.001326 0.292504)
(-0.005350 0.000943 0.179303)
(-0.002254 -0.008272 0.216785)
(-0.007404 -0.002891 0.241271)
(0.007626 0.005412 0.296848)
(0.000613 -0.000166 0.101450)
(-0.004955 -0.003194 0.046056)
(-0.008357 -0.006912 0.056087)
(0.004972 -0.000972 0.258980)
(0.002910 0.004258 0.130677)
(0.001315 0.002961 0.047313)
(-0.006698 -0.004754 0.144431)
(0.006931 0.005335 0.152264)
(-0.003129 -0.001458 0.110700)
(-0.000683 0.004308 0.057795)
(-0.001659 -0.004045 0.196533)
(0.001744 0.008697 0.008174)
(-0.003425 0.002003 0.015074)
(-0.001717 0.005210 0.189464)
(-0.007156 0.008634 0.227964)
(-0.007418 -0.000056 0.199276)
(0.006069 -0.003029 0.111241)
(-0.008006 -0.006196 0.204891)
(-0.008508 0.005444 0.292914)
(-0.004078 0.006194 0.287650)
(-0.003810 -0.000704 0.051691)
(-0.006812 0.007811 0.096844)
(-0.002746 0.008054 0.090585)
(0.006287 -0.001765 0.106850)
(-0.002048 0.008056 0.128375)
(-0.008474 -0.001450 0.008404)
(0.002431 0.004726 0.272618)
(-0.000363 0.008777 0.181045)
(-0.006538 0.003792 0.043775)
(0.004216 0.003197 0.082237)
(0.004865 -0.001875 0.252202)
(0.000254 -0.001290 0.032622)
(0.009146 -0.006667 0.169673)
(0.007313 -0.005611 0.117564)
(0.003305 0.008168 0.227817)
(0.002361 0.000969 0.022352)
(0.000527 -0.000290 0.084320)
(0.002179 -0.001606 0.194513)
(0.008530 -0.002501 0.032605)
(0.000180 0.006382 0.092023)
(0.001734 -0.003738 0.196013)
(-0.006689 -0.005704 0.216424)
(0.002793 -0.008789 0.017646)
(0.000111 -0.004163 0.282327)
(0.006142 -0.000073 0.103279)
(0.002445 0.000824 0.219272)
(-0.004284 0.003848 0.009559)
(0.000068 -0.003267 0.167580)
(-0.001333 -0.008997 0.082593)
(0.004812 0.002693 0.087446)
(-0.001518 -0.008943 0.081949)
(0.007859 0.003609 0.036090)
(-0.003286 -0.003852 0.040783)
(0.004758 -0.002235 0.273737)
(-0.003532 0.008712 0.027517)
(0.004619 -0.004805 0.016774)
(0.003780 0.008636 0.265743)
(-0.005607 -0.005323 0.290244)
(0.000024 0.001793 0.091556)
(0.007124 -0.005573 0.045790)
(-0.006764 0.008021 0.072445)
(-0.006296 -0.008775 0.194916)
(0.003074 -0.005882 0.255620)
(-0.006379 -0.005549 0.232464)
(0.008886 -0.002396 0.213629)
(-0.007989 0.007806 0.223917)
(-0.006346 0.003794 0.220806)
(-0.002669 -0.007980 0.029093)
(0.005697 0.002109 0.160719)
(0.002625 -0.007425 0.133441)
(-0.005278 0.008504 0.214357)
(0.000844 0.008853 0.046885)
(-0.001830 0.003355 0.289123)
(-0.002144 0.003885 0.193684)
(-0.003328 0.001118 0.161464)
(0.001792 -0.005965 0.072545)
(0.002342 0.009017 0.152826)
(0.003553 -0.002171 0.286566)
(0.008358 -0.008681 0.241776)
(-0.004393 0.001523 0.054192)
(0.007718 0.009081 0.214151)
(-0.007545 0.002037 0.216373)
(-0.000201 0.004662 0.051729)
(0.001209 -0.000759 0.026680)
(0.005481 -0.006624 0.175855)
(0.004934 -0.008665 0.241074)
(-0.009164 0.003592 0.202159)
(0.006795 -0.006054 0.216609)
(0.008068 0.003201 0.103196)
(-0.001580 0.008763 0.062699)
(-0.003418 -0.003727 0.102650)
(0.004171 0.000794 0.147252)
(0.008336 -0.004101 0.094535)
(-0.005526 -0.006309 0.144130)
(0.001343 -0.007445 0.060500)
(-0.006838 0.007359 0.126100)
(0.005776 -0.006031 0.148223)
(0.008898 0.001018 0.070245)
(0.001514 0.006498 0.294580)
(0.004082 0.005461 0.136314)
(0.004128 -0.000877 0.045497)
(0.002468 -0.006584 0.025324)
(-0.004747 0.003453 0.243494)
(-0.002076 -0.002147 0.125795)
(-0.000116 -0.005473 0.001184)
(-0.007510 0.004941 0.193393)
(-0.004443 -0.008755 0.207949)
(-0.000945 0.004394 0.146188)
(0.001614 -0.004930 0.250504)
(0.001246 0.000386 0.265452)
(0.005558 -0.007135 0.294302)
(-0.009058 0.007034 0.134177)
(-0.007976 0.006363 0.266632)
(-0.008857 0.007220 0.049857)
(-0.007267 0.004069 0.138154)
(-0.005060 -0.004316 0.223463)
(0.002775 0.000479 0.067035)
(0.007531 0.003882 0.181019)
(-0.006224 0.008292 0.168401)
(0.008879 0.007169 0.255328)
(0.005369 -0.007239 0.071013)
(0.003652 0.000919 0.194586)
(0.002579 -0.005459 0.265783)
(0.005758 -0.002187 0.205806)
(0.007368 0.005224 0.165702)
(0.000831 -0.000454 0.075555)
(0.007741 0.000138 0.135592)
(-0.005165 0.000721 0.204083)
(-0.007124 -0.006870 0.254596)
(0.007317 0.002805 0.018655)
(0.003915 0.003239 0.245997)
(-0.000245 -0.001734 0.233090)
(-0.001143 -0.002862 0.246393)
(0.000724 0.003304 0.080420)
(0.008586 0.005282 0.275226)
(-0.006771 0.003534 0.177774)
(-0.002711 0.006796 0.175173)
(-0.007429 0.000264 0.005394)
(-0.007859 -0.008481 0.051256)
(-0.003369 0.008026 0.041468)
(0.001448 0.007688 0.170261)
(0.003343 0.000133 0.070311)
(-0.007965 -0.005898 0.198387)
(-0.000791 0.003324 0.091787)
(-0.002289 -0.009140 0.015821)
(-0.004034 0.005383 0.216813)
(0.002822 -0.004550 0.254760)
(0.008010 -0.004504 0.031119)
(-0.008908 0.008249 0.257195)
(-0.000503 0.006508 0.287479)
(0.001962 -0.005843 0.108123)
(-0.008465 0.003900 0.219860)
(-0.007997 0.009198 0.073308)
(-0.007207 0.006626 0.268535)
(-0.001887 0.007916 0.137238)
(-0.001785 -0.001104 0.143453)
(0.007870 0.005380 0.028765)
(-0.000765 0.008506 0.136491)
(0.004937 0.008137 0.265897)
(0.001367 -0.002753 0.100942)
(0.005906 0.002255 0.200982)
(-0.006984 -0.008357 0.275942)
(-0.002526 -0.008005 0.153644)
(0.007209 -0.007993 0.011722)
(0.002012 -0.002458 0.130157)
(0.001228 -0.004468 0.194370)
(-0.005851 -0.004259 0.202384)
(-0.004116 0.003350 0.173351)
(-0.004806 -0.000535 0.200916)
(-0.005243 0.007939 0.225194)
(-0.000413 0.000163 0.176418)
(0.005259 -0.008135 0.144509)
(0.005288 -0.004532 0.108404)
(-0.008100 -0.007721 0.075669)
(-0.008300 0.000014 0.012959)
(-0.005291 -0.005112 0.067304)
(-0.001449 -0.003023 0.270545)
(0.002701 0.007522 0.211795)
(0.007013 0.007143 0.184500)
(0.005880 -0.004623 0.068017)
(-0.000837 0.004494 0.121631)
(-0.001311 -0.005744 0.219629)
(0.008733 -0.007802 0.108692)
(0.003337 -0.006068 0.207418)
(0.004325 0.006564 0.017353)
(0.000132 0.003485 0.025248)
(-0.007080 -0.003786 0.273989)
(0.007241 0.000012 0.215318)
(-0.003101 0.008636 0.269701)
(0.002051 0.009078 0.133827)
(0.003119 0.005006 0.116120)
(-0.005434 -0.000407 0.081162)
(-0.005572 0.008333 0.245127)
(0.005253 0.000900 0.047844)
(0.002533 0.008320 0.052946)
(0.004072 0.007512 0.293995)
(0.005774 0.003880 0.101359)
(0.008766 -0.005826 0.280176)
(-0.007011 -0.007496 0.049074)
(-0.003215 0.004188 0.056731)
(0.002127 0.006993 0.008747)
(-0.002101 0.005215 0.060138)
(0.003414 -0.007810 0.279771)
(-0.006611 -0.003480 0.212884)
(0.009063 0.008916 0.258108)
(0.004506 0.008973 0.230684)
(-0.003963 -0.008004 0.141541)
(-0.000900 0.006197 0.146672)
(-0.001102 0.004273 0.261798)
(0.002312 -0.003058 0.233487)
(0.003795 0.003504 0.077358)
(0.002930 -0.004461 0.148780)
(0.009152 -0.002705 0.206924)
(0.004021 0.003141 0.048551)
(0.004516 -0.005511 0.083911)
(-0.002386 0.008980 0.159455)
(-0.007766 -0.006237 0.254530)
(0.003831 -0.003399 0.029176)
(0.008728 0.003162 0.225292)
(0.004468 0.002561 0.288010)
(0.004209 0.007493 0.231311)
(-0.008327 -0.000417 0.218975)
(-0.006257 -0.004187 0.221137)
(0.001233 0.004068 0.158190)
(-0.002671 -0.000334 0.247669)
(0.000090 -0.001147 0.007020)
(-0.008617 -0.002026 0.175388)
(-0.005541 0.005038 0.009061)
(-0.006016 0.008876 0.292159)
(0.002911 0.002189 0.044996)
(0.006002 -0.004696 0.087269)
(0.003184 -0.001100 0.073130)
(-0.001372 0.004282 0.142867)
(0.003926 -0.001482 0.062673)
(0.003537 0.003781 0.216827)