/*--------------------------------*- C++ -*----------------------------------*\
  =========                 |
  \\      /  F ield         | OpenFOAM: The Open Source CFD Toolbox
   \\    /   O peration     | Website:  https://openfoam.org
    \\  /    A nd           | Version:  dev
     \\/     M anipulation  |
\*---------------------------------------------------------------------------*/
FoamFile
{
    version     2.0;
    format      ascii;
    class       dictionary;
    location    "constant";
    object      phaseProperties;
}
// * * * * * * * * * * * * * * * * * * * * * * * * * * * * * * * * * * * * * //

type    thermalPhaseChangeTwoPhaseSystem;

phases (gas liquid);

phaseChange on;

gas
{
    type            purePhaseModel;
    diameterModel   IATE;

    IATECoeffs
    {
        dMax 1e-2;
        dMin 1e-4;
        residualAlpha 1e-4;

        sources
        (
            wakeEntrainmentCoalescence
            {
                Cwe         0.002;
            }

            randomCoalescence
            {
                Crc         0.04;
                C           3;
                alphaMax    0.75;
            }

            turbulentBreakUp
            {
                Cti         0.085;
                WeCr        6;
            }

            phaseChange
            {
                pairName gasAndLiquid;
            }

            wallBoiling
            {}
        );
    }

    constantCoeffs
    {
        d               0.00045;
    }

    isothermalCoeffs
    {
        d0               0.00045;
        p0              1e5;
    }

    Sc              0.7;

    residualAlpha   1e-4;
}

liquid
{
    type            purePhaseModel;
    diameterModel   constant;
    constantCoeffs
    {
        d               0.00045;
    }
    Sc              0.7;

    residualAlpha   1e-4;
}

blending
{
    default
    {
        type            none;
        continuousPhase liquid;
    }
}

surfaceTension
(
    (gas and liquid)
    {
        type            constant;
        sigma           0.07;
    }
);

saturationModel
{
    type constant;

    Tsat 373;
    pSat 1e5;
};

aspectRatio
(
    (gas in liquid)
    {
        type            constant;
        E0              1.0;
    }
);

drag
(
    (gas in liquid)
    {
        type            SchillerNaumann;
        residualRe      1e-3;
        swarmCorrection
        {
            type        none;
        }
    }
);

virtualMass
(
    (gas in liquid)
    {
        type            constantCoefficient;
        Cvm             0.5;
    }
);

interfaceComposition
();

heatTransfer.gas
(
    (gas in liquid)
    {
        type spherical;
        residualAlpha 1e-3;
    }
);

heatTransfer.liquid
(
    (gas in liquid)
    {
        type RanzMarshall;
        residualAlpha 1e-3;
    }
);

phaseTransfer
();

lift
();

wallLubrication
();

turbulentDispersion
(
    (gas in liquid)
    {
        type                Burns;
        sigma               0.7;
        Ctd                 1.0;
        residualAlpha       1e-3;
    }
);

// Minimum allowable pressure
pMin            10000;


// ************************************************************************* //
