/*--------------------------------*- C++ -*----------------------------------*\
  =========                 |
  \\      /  F ield         | OpenFOAM: The Open Source CFD Toolbox
   \\    /   O peration     | Website:  https://openfoam.org
    \\  /    A nd           | Version:  dev
     \\/     M anipulation  |
\*---------------------------------------------------------------------------*/
FoamFile
{
    format      ascii;
    class       dictionary;
    location    "system";
    object      controlDict;
}
// * * * * * * * * * * * * * * * * * * * * * * * * * * * * * * * * * * * * * //

application     foamRun;

solver          multiphaseEuler;

startFrom       startTime;

startTime       0;

stopAt          endTime;

endTime         4;

deltaT          0.01;

writeControl    runTime;

writeInterval   0.2;

purgeWrite      0;

writeFormat     ascii;

writePrecision  6;

writeCompression uncompressed;

timeFormat      general;

timePrecision   6;

runTimeModifiable yes;

adjustTimeStep  no;

maxCo           0.5;

maxDeltaT       1;

functions
{
    #includeFunc populationBalanceSizeDistribution
    (
        populationBalance=bubbles,
        functionType=numberDensity,
        coordinateType=volume,
        entryName=numberDensity
    )

    #includeFunc populationBalanceMoments
    (
        populationBalance=bubbles,
        momentType=integerMoment,
        coordinateType=volume,
        order=1
    )

    #includeFunc populationBalanceMoments
    (
        populationBalance=bubbles,
        momentType=integerMoment,
        coordinateType=volume,
        order=0
    )

    #includeFunc probes
    (
        entryName=probes,
        points=((0.5 0.5 0.5)),
        integerMoment0(N,v).bubbles,
        integerMoment1(N,v).bubbles,
        writeControl=writeTime
    )
}

// ************************************************************************* //
