/*--------------------------------*- C++ -*----------------------------------*\
  =========                 |
  \\      /  F ield         | OpenFOAM: The Open Source CFD Toolbox
   \\    /   O peration     | Website:  https://openfoam.org
    \\  /    A nd           | Version:  dev
     \\/     M anipulation  |
\*---------------------------------------------------------------------------*/
FoamFile
{
    format      ascii;
    class       dictionary;
    location    "system";
    object      fvSolution;
}
// * * * * * * * * * * * * * * * * * * * * * * * * * * * * * * * * * * * * * //

solvers
{
    p
    {
        solver          PCG;
        preconditioner  DIC;
        tolerance       1e-8;
        relTol          0.1;
    }

    pFinal
    {
        $p;
        tolerance       1e-8;
        relTol          0;
    }

    "rho.*"
    {
        solver          diagonal;
    }

    "(U|ft|fu|egr|b|Su|Xi|fu.u|egr.u|ft.b|h.u|h.b|k|epsilon)"
    {
        solver          PBiCGStab;
        preconditioner  DILU;
        tolerance       1e-8;
        relTol          0.1;
    }

    "(U|ft|fu|egr|b|Su|Xi|fu.u|egr.u|ft.b|h.u|h.b|k|epsilon)Final"
    {
        $U;
        relTol          0;
    }
}

PIMPLE
{
    nCorrectors     2;
    nNonOrthogonalCorrectors 1;
    correctPhi      no;
}

relaxationFactors
{
    equations
    {
        ".*"       1;
    }
}


// ************************************************************************* //
