/*--------------------------------*- C++ -*----------------------------------*\
  =========                 |
  \\      /  F ield         | OpenFOAM: The Open Source CFD Toolbox
   \\    /   O peration     | Website:  https://openfoam.org
    \\  /    A nd           | Version:  dev
     \\/     M anipulation  |
\*---------------------------------------------------------------------------*/
FoamFile
{
    format      ascii;
    class       dictionary;
    object      topoSetDict;
}
// * * * * * * * * * * * * * * * * * * * * * * * * * * * * * * * * * * * * * //

actions
(
    {
        name    ignition;
        type    cellSet;
        action  new;
        source  sphereToCell;
        centre  (0.03 0.002 0.091);
        radius  0.001;
    }

    {
        name    ignition;
        type    cellZoneSet;
        action  new;
        source  setToCellZone;
        set     ignition;
    }
);

// ************************************************************************* //
