/*--------------------------------*- C++ -*----------------------------------*\
| =========                 |                                                 |
| \\      /  F ield         | OpenFOAM: The Open Source CFD Toolbox           |
|  \\    /   O peration     | Version:  dev                                   |
|   \\  /    A nd           | Website:  https://openfoam.org                  |
|    \\/     M anipulation  |                                                 |
\*---------------------------------------------------------------------------*/
FoamFile
{
    version     2.0;
    format      ascii;
    class       dictionary;
    object      blockMeshDict;
}
// * * * * * * * * * * * * * * * * * * * * * * * * * * * * * * * * * * * * * //

convertToMeters 1e-3;

vertices
(
    ( -309 -309 -250)
    (  300 -309 -250)
    (  300  300 -250)
    ( -309  300 -250)
    ( -309 -309 1500)
    (  300 -309 1500)
    (  300  300 1500)
    ( -309  300 1500)
);

blocks
(
    hex (0 1 2 3 4 5 6 7) (30 30 67) simpleGrading (1 1 1)
);

edges
(
);

boundary
(
    allBoundary
    {
        type patch;
        faces
        (
            (3 7 6 2)
            (0 4 7 3)
            (2 6 5 1)
            (1 5 4 0)
            (0 3 2 1)
            (4 5 6 7)
        );
    }
);


// ************************************************************************* //
