/*--------------------------------*- C++ -*----------------------------------*\
| =========                 |                                                 |
| \\      /  F ield         | OpenFOAM: The Open Source CFD Toolbox           |
|  \\    /   O peration     | Version:  dev                                   |
|   \\  /    A nd           | Web:      www.OpenFOAM.org                      |
|    \\/     M anipulation  |                                                 |
\*---------------------------------------------------------------------------*/
FoamFile
{
    version     2.0;
    format      ascii;
    class       volScalarField;
    location    "0/bottomWater";
    object      p_rgh;
}
// * * * * * * * * * * * * * * * * * * * * * * * * * * * * * * * * * * * * * //

dimensions      [ 1 -1 -2 0 0 0 0 ];

internalField   uniform 0;

boundaryField
{
    #includeEtc "caseDicts/setConstraintTypes"

    minX
    {
        type            fixedFluxPressure;
        value           $internalField;
    }
    maxX
    {
        type            fixedValue;
        value           $internalField;
    }
    "(min|max)(Y|Z)"
    {
        type            fixedFluxPressure;
        value           $internalField;
    }
    "bottomWater_to_.*"
    {
        type            fixedFluxPressure;
        value           $internalField;
    }
}


// ************************************************************************* //
