/*--------------------------------*- C++ -*----------------------------------*\
| =========                 |                                                 |
| \\      /  F ield         | OpenFOAM: The Open Source CFD Toolbox           |
|  \\    /   O peration     | Version:  dev                                   |
|   \\  /    A nd           | Web:      www.OpenFOAM.org                      |
|    \\/     M anipulation  |                                                 |
\*---------------------------------------------------------------------------*/
FoamFile
{
    version     2.0;
    format      ascii;
    class       volVectorField;
    location    "0/bottomAir";
    object      U;
}
// * * * * * * * * * * * * * * * * * * * * * * * * * * * * * * * * * * * * * //

dimensions      [ 0 1 -1 0 0 0 0 ];

internalField   uniform (0.001 0 0);

boundaryField
{
    #includeEtc "caseDicts/setConstraintTypes"

    minX
    {
        type            fixedValue;
        value           $internalField;
    }
    maxX
    {
        type            pressureInletOutletVelocity;
        value           $internalField;
    }
    "(min|max)(Y|Z)"
    {
        type            noSlip;
    }
    ".*"
    {
        type            noSlip;
    }
}


// ************************************************************************* //
