/*--------------------------------*- C++ -*----------------------------------*\
  =========                 |
  \\      /  F ield         | OpenFOAM: The Open Source CFD Toolbox
   \\    /   O peration     | Website:  https://openfoam.org
    \\  /    A nd           | Version:  dev
     \\/     M anipulation  |
\*---------------------------------------------------------------------------*/
FoamFile
{
    format      ascii;
    class       dictionary;
    location    "system";
    object      controlDict;
}
// * * * * * * * * * * * * * * * * * * * * * * * * * * * * * * * * * * * * * //

application     foamRun;

solver          incompressibleVoF;

startFrom       startTime;

startTime       0;

stopAt          endTime;

endTime         5.0;

deltaT          0.001;

writeControl    adjustableRunTime;

writeInterval   0.025;

purgeWrite      0;

writeFormat     binary;

writePrecision  6;

writeCompression off;

timeFormat      general;

timePrecision   10;

runTimeModifiable yes;

adjustTimeStep  yes;

maxCo           1.5;

maxAlphaCo      1;

maxDeltaT       1;

functions
{
    #includeFunc cutPlaneSurface
    (
        point=(0 0 0),
        normal=(1 -1 0),
        interpolate=no,
        alpha.oil,
        p_rgh,
        U
    )
}

// ************************************************************************* //
