/*--------------------------------*- C++ -*----------------------------------*\
  =========                 |
  \\      /  F ield         | OpenFOAM: The Open Source CFD Toolbox
   \\    /   O peration     | Website:  https://openfoam.org
    \\  /    A nd           | Version:  dev
     \\/     M anipulation  |
\*---------------------------------------------------------------------------*/
FoamFile
{
    format      ascii;
    class       dictionary;
    object      meshQualityDict;
}
// * * * * * * * * * * * * * * * * * * * * * * * * * * * * * * * * * * * * * //

#includeEtc "caseDicts/mesh/generation/meshQualityDict.cfg"

//- Minimum quality of the tet formed by the face-centre
//  and variable base point minimum decomposition triangles and
//  the cell centre. Set to very negative number (e.g. -1e30) to
//  disable.
//     <0 = inside out tet,
//      0 = flat tet
//      1 = regular tet
minTetQuality -1e30;

//- Minimum face twist. Set to <-1 to disable. dot product of face normal
// and face centre triangles normal
minTwist 0.05;

// ************************************************************************* //
