/*--------------------------------*- C++ -*----------------------------------*\
  =========                 |
  \\      /  F ield         | OpenFOAM: The Open Source CFD Toolbox
   \\    /   O peration     | Website:  https://openfoam.org
    \\  /    A nd           | Version:  dev
     \\/     M anipulation  |
\*---------------------------------------------------------------------------*/
FoamFile
{
    format      ascii;
    class       dictionary;
    location    "constant";
    object      phaseProperties;
}
// * * * * * * * * * * * * * * * * * * * * * * * * * * * * * * * * * * * * * //

type    thermalPhaseChangeMultiphaseSystem;

phases (gas liquid);

gas
{
    type            purePhaseModel;
    diameterModel   constant;

    constantCoeffs
    {
        d               0.00045;
    }

    residualAlpha   1e-6;
}

liquid
{
    type            purePhaseModel;
    diameterModel   constant;
    constantCoeffs
    {
        d               0.00045;
    }
    Sc              0.7;

    residualAlpha   1e-6;
}

drag
(
    (gas in liquid)
    {
        type            IshiiZuber;

        swarmCorrection
        {
            type        none;
        }
    }
);

virtualMass
(
    (gas in liquid)
    {
        type            constantCoefficient;
        Cvm             0.5;
    }
);

heatTransfer.gas
(
    (gas in liquid)
    {
        type spherical;
    }
);

heatTransfer.liquid
(
    (gas in liquid)
    {
        type RanzMarshall;
    }
);

lift
(
    (gas in liquid)
    {
        type wallDamped;

        lift
        {
            type Tomiyama;
            Cl 0.288;
        }

        wallDamping
        {
            type    cosine;
            Cd      1.0;
            zeroWallDist 0.0002;
        }
    }
);

wallLubrication
(
   (gas in liquid)
    {
        type            Antal;
        Cw1             -0.01;
        Cw2             0.05;
    }
);

turbulentDispersion
(
    (gas in liquid)
    {
        type                LopezDeBertodano;
        Ctd                 1.0;
        residualAlpha       1e-3;
    }
);

blending
{
    default
    {
        type            none;
        continuousPhase liquid;
    }
}

aspectRatio
();

saturation
(
    (gas and liquid)
    {
        type function1;

        function scale;

        xScale 1e-6;
        scale   1;
        value
        {
            type                tableFile;
            format              csv;
            nHeaderLine         1;
            refColumn           1;
            componentColumns    (0);
            mergeSeparators     no;
            file "$FOAM_TUTORIALS/resources/thermoData/wallBoiling-saturation.csv";
            outOfBounds         clamp;
            interpolationScheme linear;
        }
    }
);

surfaceTension
(
    (gas and liquid)
    {
        type            constant;
        sigma           0.00176574;
    }
);

phaseTransfer
();

interfaceCompression
();

// ************************************************************************* //
