/*--------------------------------*- C++ -*----------------------------------*\
  =========                 |
  \\      /  F ield         | OpenFOAM: The Open Source CFD Toolbox
   \\    /   O peration     | Website:  https://openfoam.org
    \\  /    A nd           | Version:  dev
     \\/     M anipulation  |
\*---------------------------------------------------------------------------*/
FoamFile
{
    version     2.0;
    format      ascii;
    class       volScalarField;
    object      p;
}
// * * * * * * * * * * * * * * * * * * * * * * * * * * * * * * * * * * * * * //

#include "$FOAM_CASE/constant/initialConditions";

dimensions      [1 -1 -2 0 0 0 0];

internalField   uniform $pInitial;

boundaryField
{
    ".*"
    {
        type            calculated;
        value           uniform $pInitial;
    }

    #includeEtc "caseDicts/setConstraintTypes"
}

// ************************************************************************* //
