/*--------------------------------*- C++ -*----------------------------------*\
  =========                 |
  \\      /  F ield         | OpenFOAM: The Open Source CFD Toolbox
   \\    /   O peration     | Website:  https://openfoam.org
    \\  /    A nd           | Version:  dev
     \\/     M anipulation  |
\*---------------------------------------------------------------------------*/
FoamFile
{
    format      ascii;
    class       volScalarField;
    location    "0";
    object      alphat;
}
// * * * * * * * * * * * * * * * * * * * * * * * * * * * * * * * * * * * * * //

#include "${FOAM_CASE}/constant/caseSettings"

dimensions      [dynamicDiffusivity];

internalField   uniform 0;

boundaryField
{
    #includeEtc "caseDicts/setConstraintTypes"

    inlet
    {
        $!calculated/alphat;
    }

    outlet
    {
        $!calculated/alphat;
    }

    movingWalls
    {
        $!wall/alphat;
    }

    staticWalls
    {
        $movingWalls;
    }

    nonCouple
    {
        type            zeroGradient;
    }

    nonCouple
    {
        type            zeroGradient;
    }
}

// ************************************************************************* //
