/*--------------------------------*- C++ -*----------------------------------*\
  =========                 |
  \\      /  F ield         | OpenFOAM: The Open Source CFD Toolbox
   \\    /   O peration     | Website:  https://openfoam.org
    \\  /    A nd           | Version:  dev
     \\/     M anipulation  |
\*---------------------------------------------------------------------------*/
FoamFile
{
    format      ascii;
    class       dictionary;
    object      limitPressure;
}
// * * * * * * * * * * * * * * * * * * * * * * * * * * * * * * * * * * * * * //

type       limitPressure;

selectionMode all;

// limits can be specified absolute
// min        <200>;
// max        <500>;

// ... or as multipliers on initial min/max values
minFactor  <0.1>;
maxFactor  <1.5>;

//************************************************************************** //
