/*--------------------------------*- C++ -*----------------------------------*\
  =========                 |
  \\      /  F ield         | OpenFOAM: The Open Source CFD Toolbox
   \\    /   O peration     | Website:  https://openfoam.org
    \\  /    A nd           | Version:  dev
     \\/     M anipulation  |
\*---------------------------------------------------------------------------*/
FoamFile
{
    format      ascii;
    class       dictionary;
    location    "system";
    object      refineMeshDict;
}
// * * * * * * * * * * * * * * * * * * * * * * * * * * * * * * * * * * * * * //

coordinates
{
    type        global;

    e1          (1 0 0);
    e2          (0 1 0);

    directions  (e1 e2 e3);
}

zone
{
    type    box;
    box     (-1e6 -1e6 -1e6)(1e6 -0.15 0.3);
}

useHexTopology  yes;

// ************************************************************************* //
