/*--------------------------------*- C++ -*----------------------------------*\
  =========                 |
  \\      /  F ield         | OpenFOAM: The Open Source CFD Toolbox
   \\    /   O peration     | Website:  https://openfoam.org
    \\  /    A nd           | Version:  dev
     \\/     M anipulation  |
\*---------------------------------------------------------------------------*/
FoamFile
{
    version     2.0;
    format      ascii;
    class       volScalarField;
    location    "0/wallFilmRegion";
    object      deltaf;
}
// * * * * * * * * * * * * * * * * * * * * * * * * * * * * * * * * * * * * * //

dimensions      [0 1 0 0 0 0 0];

internalField   uniform 0.00013;

boundaryField
{
    wallFilmFaces_top
    {
        type            zeroGradient;
    }

    region0_to_wallFilmRegion_wallFilmFaces
    {
        type            zeroGradient;
    }

    side1
    {
        type            zeroGradient;
    }

    side2
    {
        type            zeroGradient;
    }

    side3
    {
        type            zeroGradient;
    }

    side4
    {
        type            zeroGradient;
    }
}


// ************************************************************************* //
