/*--------------------------------*- C++ -*----------------------------------*\
  =========                 |
  \\      /  F ield         | OpenFOAM: The Open Source CFD Toolbox
   \\    /   O peration     | Website:  https://openfoam.org
    \\  /    A nd           | Version:  dev
     \\/     M anipulation  |
\*---------------------------------------------------------------------------*/
FoamFile
{
    format      ascii;
    class       dictionary;
    object      createZonesDict;
}

// * * * * * * * * * * * * * * * * * * * * * * * * * * * * * * * * * * * * * //

f0
{
    type        intersection;

    freeSurface
    {
        type        patch;
        patch       freeSurface;
    }

    box
    {
        type        box;
        zoneType    face;
        box         (-100 0.9 -100) (0.2 100 100);
    }
}

// ************************************************************************* //
