/*--------------------------------*- C++ -*----------------------------------*\
  =========                 |
  \\      /  F ield         | OpenFOAM: The Open Source CFD Toolbox
   \\    /   O peration     | Website:  https://openfoam.org
    \\  /    A nd           | Version:  dev
     \\/     M anipulation  |
\*---------------------------------------------------------------------------*/
FoamFile
{
    format      ascii;
    class       volVectorField;
    location    "1";
    object      U;
}
// * * * * * * * * * * * * * * * * * * * * * * * * * * * * * * * * * * * * * //

dimensions      [0 1 -1 0 0 0 0];

internalField   uniform (0 0 0);

boundaryField
{
    walls
    {
        type            noSlip;
    }
    inlet
    {
        type            fixedValue;
        value           uniform (5 0 0);
    }
    outlet
    {
        type            zeroGradient;
    }
    cycLeft_half0
    {
        type            cyclic;
    }
    cycRight_half0
    {
        type            cyclic;
    }
    frontAndBack
    {
        type            empty;
    }
    cycLeft_half1
    {
        type            cyclic;
    }
    cycRight_half1
    {
        type            cyclic;
    }
}

sources
{
    massSource
    {
        type            uniformInletOutlet;
        uniformInletValue (0 50 0);
    }
}


// ************************************************************************* //
