THERMO ALL
   200.000  1000.000  5000.000
H          8/12/99 THERMH   1O   0    0    0G   200.000  5000.000 1000.000     1
 2.50104422E+00 0.00000000E+00 0.00000000E+00 0.00000000E+00 0.00000000E+00    2
 2.54747466E+04-4.65341317E-01 2.50104422E+00 0.00000000E+00 0.00000000E+00    3
 0.00000000E+00 0.00000000E+00 2.54747466E+04-4.65341317E-01                   4
H2                121286H   2               G  0200.00   5000.00  1000.00      1
 0.02991423E+02 0.07000644E-02-0.05633829E-06-0.09231578E-10 0.01582752E-13    2
-0.08350340E+04-0.01355110E+02 0.03298124E+02 0.08249442E-02-0.08143015E-05    3
-0.09475434E-09 0.04134872E-11-0.01012521E+05-0.03294094E+02                   4
O                 120186O   1               G  0200.00   5000.00  1000.00      1
 0.02542060E+02-0.02755062E-03-0.03102803E-07 0.04551067E-10-0.04368052E-14    2
 0.02923080E+06 0.04920308E+02 0.02946429E+02-0.01638166E-01 0.02421032E-04    3
-0.01602843E-07 0.03890696E-11 0.02914764E+06 0.02963995E+02                   4
O2                121386O   2               G  0200.00   5000.00  1000.00      1
 0.03697578E+02 0.06135197E-02-0.01258842E-05 0.01775281E-09-0.01136435E-13    2
-0.01233930E+05 0.03189166E+02 0.03212936E+02 0.01127486E-01-0.05756150E-05    3
 0.01313877E-07-0.08768554E-11-0.01005249E+05 0.06034738E+02                   4
OH         8/12/99 THERMH   1O   1    0    0G   200.000  5000.000 1357.000     1
 2.62599754E+00 1.31992406E-03-3.59724670E-07 4.25630800E-11-1.82048016E-15    2
 4.12085374E+03 7.10667307E+00 3.43586219E+00 2.02235804E-04-1.13546412E-07    3
 2.42445149E-10-7.43651031E-14 3.74321252E+03 2.45014127E+00                   4
H2O                20387H   2O   1          G  0200.00   5000.00  1000.00      1
 0.02672146E+02 0.03056293E-01-0.08730260E-05 0.01200996E-08-0.06391618E-13    2
-0.02989921E+06 0.06862817E+02 0.03386842E+02 0.03474982E-01-0.06354696E-04    3
 0.06968581E-07-0.02506588E-10-0.03020811E+06 0.02590233E+02                   4
N2                121286N   2               G  0200.00   5000.00  1000.00      1
 0.02926640E+02 0.01487977E-01-0.05684761E-05 0.01009704E-08-0.06753351E-13    2
-0.09227977E+04 0.05980528E+02 0.03298677E+02 0.01408240E-01-0.03963222E-04    3
 0.05641515E-07-0.02444855E-10-0.01020900E+05 0.03950372E+02                   4
CO                121286C   1O   1          G  0200.00   5000.00  1000.00      1
 0.03025078E+02 0.01442689E-01-0.05630828E-05 0.01018581E-08-0.06910952E-13    2
-0.01426835E+06 0.06108218E+02 0.03262452E+02 0.01511941E-01-0.03881755E-04    3
 0.05581944E-07-0.02474951E-10-0.01431054E+06 0.04848897E+02                   4
HCO               121286H   1C   1O   1     G  0200.00   5000.00  1000.00      1
 0.03557271E+02 0.03345573E-01-0.01335006E-04 0.02470573E-08-0.01713851E-12    2
 0.03916324E+05 0.05552299E+02 0.02898330E+02 0.06199147E-01-0.09623084E-04    3
 0.01089825E-06-0.04574885E-10 0.04159922E+05 0.08983614E+02                   4
CO2               121286C   1O   2          G  0200.00   5000.00  1000.00      1
 0.04453623E+02 0.03140169E-01-0.01278411E-04 0.02393997E-08-0.01669033E-12    2
-0.04896696E+06-0.09553959E+01 0.02275725E+02 0.09922072E-01-0.01040911E-03    3
 0.06866687E-07-0.02117280E-10-0.04837314E+06 0.01018849E+03                   4
CH3               121286C   1H   3          G  0200.00   5000.00  1000.00      1
 0.02844052E+02 0.06137974E-01-0.02230345E-04 0.03785161E-08-0.02452159E-12    2
 0.01643781E+06 0.05452697E+02 0.02430443E+02 0.01112410E+00-0.01680220E-03    3
 0.01621829E-06-0.05864953E-10 0.01642378E+06 0.06789794E+02                   4
CH4               121286C   1H   4          G  0200.00   5000.00  1000.00      1
 0.01683479E+02 0.01023724E+00-0.03875129E-04 0.06785585E-08-0.04503423E-12    2
-0.01008079E+06 0.09623395E+02 0.07787415E+01 0.01747668E+00-0.02783409E-03    3
 0.03049708E-06-0.01223931E-09-0.09825229E+05 0.01372219E+03                   4
HO2        8/12/99 THERMH   1O   2    0    0G   200.000  5000.000 1390.000     1
 4.10547423E+00 2.38452835E-03-8.06347989E-07 1.24191723E-10-7.16400108E-15    2
 3.98127689E+02 3.12515836E+00 3.18310656E+00 3.66767950E-03-9.32385122E-07    3
-3.25852919E-10 1.51139912E-13 8.09181013E+02 8.39371099E+00                   4
H2O2              120186H   2O   2          G  0200.00   5000.00  1000.00      1
 0.04573167E+02 0.04336136E-01-0.01474689E-04 0.02348904E-08-0.01431654E-12    2
-0.01800696E+06 0.05011370E+01 0.03388754E+02 0.06569226E-01-0.01485013E-05    3
-0.04625806E-07 0.02471515E-10-0.01766315E+06 0.06785363E+02                   4
CH2O              121286C   1H   2O   1     G  0200.00   5000.00  1000.00      1
 0.02995606E+02 0.06681321E-01-0.02628955E-04 0.04737153E-08-0.03212517E-12    2
-0.01532037E+06 0.06912572E+02 0.01652731E+02 0.01263144E+00-0.01888168E-03    3
 0.02050031E-06-0.08413237E-10-0.01486540E+06 0.01378482E+03                   4
CH3O              121686C   1H   3O   1     G  0200.00   3000.00  1000.00      1
 0.03770800E+02 0.07871497E-01-0.02656384E-04 0.03944431E-08-0.02112616E-12    2
 0.01278325E+04 0.02929575E+02 0.02106204E+02 0.07216595E-01 0.05338472E-04    3
-0.07377636E-07 0.02075611E-10 0.09786011E+04 0.01315218E+03                   4
C2H6              121686C   2H   6          G  0200.00   4000.00  1000.00      1
 0.04825938E+02 0.01384043E+00-0.04557259E-04 0.06724967E-08-0.03598161E-12    2
-0.01271779E+06-0.05239507E+02 0.01462539E+02 0.01549467E+00 0.05780507E-04    3
-0.01257832E-06 0.04586267E-10-0.01123918E+06 0.01443229E+03                   4
C2H4              121286C   2H   4          G  0200.00   5000.00  1000.00      1
 0.03528419E+02 0.01148518E+00-0.04418385E-04 0.07844601E-08-0.05266848E-12    2
 0.04428289E+05 0.02230389E+02-0.08614880E+01 0.02796163E+00-0.03388677E-03    3
 0.02785152E-06-0.09737879E-10 0.05573046E+05 0.02421149E+03                   4
C2H5               12387C   2H   5          G  0200.00   5000.00  1000.00      1
 0.07190480E+02 0.06484077E-01-0.06428065E-05-0.02347879E-08 0.03880877E-12    2
 0.01067455E+06-0.01478089E+03 0.02690702E+02 0.08719133E-01 0.04419839E-04    3
 0.09338703E-08-0.03927773E-10 0.01287040E+06 0.01213820E+03                   4
CH2               120186C   1H   2          G  0250.00   4000.00  1000.00      1
 0.03636408E+02 0.01933057E-01-0.01687016E-05-0.01009899E-08 0.01808256E-12    2
 0.04534134E+06 0.02156561E+02 0.03762237E+02 0.01159819E-01 0.02489585E-05    3
 0.08800836E-08-0.07332435E-11 0.04536791E+06 0.01712578E+02                   4
CH                121286C   1H   1          G  0200.00   5000.00  1000.00      1
 0.02196223E+02 0.02340381E-01-0.07058201E-05 0.09007582E-09-0.03855040E-13    2
 0.07086723E+06 0.09178373E+02 0.03200202E+02 0.02072876E-01-0.05134431E-04    3
 0.05733890E-07-0.01955533E-10 0.07045259E+06 0.03331588E+02                   4
C2H                81193C   2H   1          G  0200.00   4000.00  1000.00      1
 0.03986367E+02 0.03143123E-01-0.01267243E-04 0.02924363E-08-0.02716320E-12    2
 0.06655884E+06 0.01191063E+02 0.02737704E+02 0.08048446E-01-0.09244310E-04    3
 0.06525259E-07-0.01939580E-10 0.06683813E+06 0.07300220E+02                   4
C2H2              121386C   2H   2          G  0200.00   5000.00  1000.00      1
 0.04436770E+02 0.05376039E-01-0.01912817E-04 0.03286379E-08-0.02156710E-12    2
 0.02566766E+06-0.02800338E+02 0.02013562E+02 0.01519045E+00-0.01616319E-03    3
 0.09078992E-07-0.01912746E-10 0.02612444E+06 0.08805378E+02                   4
C2H3               12787C   2H   3          G  0200.00   5000.00  1000.00      1
 0.05933468E+02 0.04017746E-01-0.03966740E-05-0.01441267E-08 0.02378644E-12    2
 0.03185435E+06-0.08530313E+02 0.02459276E+02 0.07371476E-01 0.02109873E-04    3
-0.01321642E-07-0.01184784E-10 0.03335225E+06 0.01155620E+03                   4
CH3OH             121686C   1H   4O   1     G  0200.00   5000.00  1000.00      1
 0.04029061E+02 0.09376593E-01-0.03050254E-04 0.04358793E-08-0.02224723E-12    2
-0.02615791E+06 0.02378196E+02 0.02660115E+02 0.07341508E-01 0.07170051E-04    3
-0.08793194E-07 0.02390570E-10-0.02535348E+06 0.01123263E+03                   4
CH2OH             120186H   3C   1O   1     G  0250.00   4000.00  1000.00      1
 0.06327520E+02 0.03608271E-01-0.03201547E-05-0.01938750E-08 0.03509705E-12    2
-0.04474509E+05-0.08329366E+02 0.02862628E+02 0.01001527E+00-0.05285436E-05    3
-0.05138540E-07 0.02246041E-10-0.03349679E+05 0.01039794E+03                   4
CH2CO             121686C   2H   2O   1     G  0200.00   5000.00  1000.00      1
 0.06038817E+02 0.05804840E-01-0.01920954E-04 0.02794485E-08-0.01458868E-12    2
-0.08583402E+05-0.07657581E+02 0.02974971E+02 0.01211871E+00-0.02345046E-04    3
-0.06466685E-07 0.03905649E-10-0.07632637E+05 0.08673553E+02                   4
HCCO               32387H   1C   2O   1     G  0200.00   4000.00  1000.00      1
 0.06758073E+02 0.02000400E-01-0.02027607E-05-0.01041132E-08 0.01965165E-12    2
 0.01901513E+06-0.09071262E+02 0.05047965E+02 0.04453478E-01 0.02268283E-05    3
-0.01482095E-07 0.02250742E-11 0.01965892E+06 0.04818439E+01                   4
C2H5OH     3/12/95 THERMC   2H   6O   1    0G   200.000  5000.000 1391.00      1
 7.95264841E+00 1.31574144E-02-4.43693359E-06 6.82201160E-10-3.93096335E-14    2
-3.23602958E+04-1.76537972E+01 4.23149045E-01 2.92858167E-02-1.73845099E-05    3
 5.33639892E-09-6.74917252E-13-2.95683054E+04 2.33538763E+01                   4
PC2H4OH    3/12/95 THERMC   2H   5O   1     G  0200.00   5000.00  1391.00      1
 7.52241939E+00 1.10492715E-02-3.72576465E-06 5.72827397E-10-3.30061759E-14    2
-7.29333590E+03-1.24958732E+01 1.17714711E+00 2.48115685E-02-1.50299503E-05    3
 4.79006785E-09-6.40994211E-13-4.95369043E+03 2.20081586E+01                   4
SC2H4OH    3/12/95 THERMC   2H   5O   1     G  0200.00   5000.00  1553.00      1
 7.26631179E+00 1.09588926E-02-3.63662803E-06 5.53659830E-10-3.17012322E-14    2
-8.64310684E+03-1.06794104E+01 1.83974631E+00 1.87789371E-02-4.60544253E-06    3
-2.13116990E-09 9.43772653E-13-6.29595195E+03 2.01446141E+01                   4
CH3CO             120186C   2H   3O   1     G  0200.00   5000.00  1000.00      1
 0.05612279E+02 0.08449886E-01-0.02854147E-04 0.04238376E-08-0.02268404E-12    2
-0.05187863E+05-0.03274949E+02 0.03125278E+02 0.09778220E-01 0.04521448E-04    3
-0.09009462E-07 0.03193718E-10-0.04108508E+05 0.01122885E+03                   4
CH2CHO            110393O   1H   3C   2     G  0200.00   5000.00  1000.00      1
 0.05975670E+02 0.08130591E-01-0.02743624E-04 0.04070304E-08-0.02176017E-12    2
 0.04903218E+04-0.05045251E+02 0.03409062E+02 0.01073857E+00 0.01891492E-04    3
-0.07158583E-07 0.02867385E-10 0.01521477E+05 0.09558290E+02                   4
CH3CHO            120186C   2O   1H   4     G  0200.00   5000.00  1000.00      1
 0.05868650E+02 0.01079424E+00-0.03645530E-04 0.05412912E-08-0.02896844E-12    2
-0.02264569E+06-0.06012946E+02 0.02505695E+02 0.01336991E+00 0.04671953E-04    3
-0.01128140E-06 0.04263566E-10-0.02124589E+06 0.01335089E+03                   4
C3H4-A            101993H   4C   3          G  0200.00   4000.00  1400.00      1
 0.09776256E+02 0.05302138E-01-0.03701118E-05-0.03026386E-08 0.05089581E-12    2
 0.01954972E+06-0.03077061E+03 0.02539831E+02 0.01633437E+00-0.01764950E-04    3
-0.04647365E-07 0.01729131E-10 0.02251243E+06 0.09935702E+02                   4
C3H4-P            101993H   4C   3          G  0200.00   4000.00  1400.00      1
 0.09768102E+02 0.05219151E-01-0.03753140E-05-0.02992191E-08 0.05107878E-12    2
 0.01860277E+06-0.03020678E+03 0.03029730E+02 0.01498961E+00-0.01398500E-04    3
-0.03969619E-07 0.01388217E-10 0.02148408E+06 0.08004594E+02                   4
C4H6              120186C   4H   6          G  0200.00   5000.00  1000.00      1
 0.08046583E+02 0.01648525E+00-0.05522227E-04 0.08123593E-08-0.04295078E-12    2
 0.01370130E+06-0.01800458E+03 0.03197108E+02 0.02025592E+00 0.06510192E-04    3
-0.01658442E-06 0.06400282E-10 0.01571520E+06 0.09895660E+02                   4
NC3H7             120186C   3H   7          G  0200.00   5000.00  1000.00      1
 0.07978291E+02 0.01576113E+00-0.05173243E-04 0.07443892E-08-0.03824978E-12    2
 0.07579402E+05-0.01935611E+03 0.01922537E+02 0.02478927E+00 0.01810249E-04    3
-0.01783266E-06 0.08582996E-10 0.09713281E+05 0.01399271E+03                   4
IC3H7             120186C   3H   7          G  0200.00   5000.00  1000.00      1
 0.08063369E+02 0.01574488E+00-0.05182392E-04 0.07477245E-08-0.03854422E-12    2
 0.05313871E+05-0.02192647E+03 0.01713300E+02 0.02542616E+00 0.01580808E-04    3
-0.01821286E-06 0.08827710E-10 0.07535809E+05 0.01297901E+03                   4
C3H8              120186C   3H   8          G  0200.00   5000.00  1000.00      1
 0.07525217E+02 0.01889034E+00-0.06283924E-04 0.09179373E-08-0.04812410E-12    2
-0.01646455E+06-0.01784390E+03 0.08969208E+01 0.02668986E+00 0.05431425E-04    3
-0.02126001E-06 0.09243330E-10-0.01395492E+06 0.01935533E+03                   4
IC4H8      5/27/97 THERMC   4H   8    0    0G   200.000  5000.000 1388.000     1
 1.12258330E+01 1.81795798E-02-6.20348592E-06 9.61444458E-10-5.57088057E-14    2
-7.69983777E+03-3.73306704E+01 9.38433173E-01 3.90547287E-02-2.16437148E-05    3
 5.87267077E-09-6.14435479E-13-3.74817891E+03 1.91442985E+01                   4
IC4H7      5/27/97 THERMC   4H   7    0    0G   200.000  5000.000 1393.000     1
 1.16382753E+01 1.57681299E-02-5.38538858E-06 8.35172927E-10-4.84141083E-14    2
 1.05471642E+04-3.90259890E+01-7.20881697E-04 4.36495730E-02-3.16385877E-05    3
 1.23984983E-08-2.04378360E-12 1.45717785E+04 2.33234340E+01                   4
C4H7       2/14/95      C   4H   7    0    0G   200.000  5000.000 1392.00      1
 1.12103578E+01 1.60483196E-02-5.46502292E-06 8.45941053E-10-4.89772739E-14    2
 1.09041937E+04-3.55593015E+01-3.50508352E-01 4.26511243E-02-2.90979373E-05    3
 1.05403914E-08-1.60059854E-12 1.49933591E+04 2.67295696E+01                   4
C4H8-2    STU/WES/SINK87C   4H   8    0    0G   200.000  5000.000 1385.00      1
 1.08833376E+01 1.84539446E-02-6.29495608E-06 9.75430323E-10-5.65125467E-14    2
-7.07077336E+03-3.50731243E+01 1.07328316E+00 3.67146614E-02-1.74773309E-05    3
 3.14349575E-09 3.46426682E-16-3.14738580E+03 1.93492291E+01                   4
C4H8-1                  C   4H   8    0    0G   200.000  5000.000 1392.00      1
 1.11677862E+01 1.81888641E-02-6.19824236E-06 9.59778856E-10-5.55785743E-14    2
-5.85353660E+03-3.45399165E+01-6.51720907E-01 4.44466003E-02-2.85191964E-05    3
 9.66984992E-09-1.38028760E-12-1.56279165E+03 2.95024366E+01                   4
SC4H9      1/14/95 THERMC   4H   9    0    0G   200.000  5000.000 1373.00      1
 1.18293992E+01 1.94203812E-02-6.55835141E-06 1.00989031E-09-5.82693176E-14    2
 1.79315973E+03-3.68210535E+01 7.70280143E-01 3.86280904E-02-1.57100260E-05    3
 7.16860109E-10 7.00801289E-13 6.28812837E+03 2.49106489E+01                   4
PC4H9      1/14/95 THERMC   4H   9    0    0G   200.000  5000.000 1395.00      1
 1.21510082E+01 1.94310717E-02-6.61577950E-06 1.02375136E-09-5.92529707E-14    2
 3.17231942E+03-3.93425822E+01-4.37779725E-01 4.78972364E-02-3.14023159E-05    3
 1.09786472E-08-1.62010664E-12 7.68945248E+03 2.86852732E+01                   4
TC4H9      9/19/91 THERMC   4H   9    0    0G   200.000  5000.000 1381.00      1
 9.94382112E+00 2.16693078E-02-7.47001405E-06 1.16578454E-09-6.78791834E-14    2
-4.06100251E+02-2.98153785E+01-2.73729204E+00 4.55390345E-02-2.26390939E-05    3
 4.56951052E-09-1.55321795E-13 4.65498223E+03 4.04683378E+01                   4
IC4H9      9/19/91 THERMC   4H   9    0    0G   200.000  5000.000 1393.00      1
 1.22753162E+01 1.95174006E-02-6.68773001E-06 1.03935193E-09-6.03374502E-14    2
 1.69244882E+03-4.08932742E+01-1.00837472E+00 5.01087003E-02-3.41941210E-05    3
 1.26025783E-08-1.97552053E-12 6.42407431E+03 3.07281021E+01                   4
IC4H10     9/19/91 THERMC   4H  10    0    0G   200.000  5000.000 1389.00      1
 1.25733114E+01 2.18926418E-02-7.52538350E-06 1.17205495E-09-6.81446681E-14    2
-2.31696746E+04-4.68044254E+01-1.01277508E+00 5.04683181E-02-3.00502072E-05    3
 9.15435582E-09-1.15326683E-12-1.80495698E+04 2.74256872E+01                   4
C4H10              62090C   4H  10          G  0200.00   4000.00  1500.00      1
 0.01998785E+03 0.01037281E+00-0.09610818E-05-0.04623018E-08 0.08202828E-12    2
-0.02625571E+06-0.08837907E+03-0.02256618E+02 0.05881732E+00-0.04525783E-03    3
 0.02037115E-06-0.04079458E-10-0.01760233E+06 0.03329595E+03                   4
CH3COCH3   5/ 4/92 THERMC   3H   6O   1    0G   200.000  5000.000 1374.00      1
 9.91421984E+00 1.46030709E-02-5.06085765E-06 7.92682855E-10-4.62739645E-14    2
-3.11167423E+04-2.86113215E+01 1.30767163E+00 2.92021742E-02-1.19045617E-05    3
 6.52150087E-10 4.67751203E-13-2.75328269E+04 1.96395025E+01                   4
CH3COCH2   5/ 4/92 THERMC   3H   5O   1    0G   200.000  5000.000 1391.00      1
 1.02303975E+01 1.16494161E-02-4.01005537E-06 6.25205246E-10-3.63784362E-14    2
-8.44380462E+03-2.79197220E+01 1.80339187E+00 3.01407085E-02-1.93505552E-05    3
 6.38199034E-09-8.66103180E-13-5.37233261E+03 1.78046408E+01                   4
C2H5CHO    6/26/95      C   3H   6O   1    0G   200.000  5000.000 1378.00      1
 1.02427695E+01 1.39641989E-02-4.76248001E-06 7.38105706E-10-4.27759503E-14    2
-2.74143135E+04-2.85346843E+01 2.16308444E+00 2.95501264E-02-1.52446252E-05    3
 3.49503947E-09-2.38896627E-13-2.42260137E+04 1.61153348E+01                   4
C2H5CO     6/26/95      C   3H   5O   1    0G   200.000  5000.000 1373.00      1
 9.87881997E+00 1.17515676E-02-4.00614923E-06 6.20850617E-10-3.59835225E-14    2
-8.47292283E+03-2.49235196E+01 2.93313946E+00 2.47427911E-02-1.21222003E-05    3
 2.34701048E-09-5.26843338E-14-5.69663063E+03 1.35958355E+01                   4
C5H9       2/14/95      C   5H   9    0    0G   200.000  5000.000 1383.00      1
 1.40840800E+01 2.08584950E-02-7.22620456E-06 1.13154433E-09-6.60424465E-14    2
 5.42195058E+03-5.15386962E+01-6.97079542E-01 5.14354766E-02-3.04500502E-05    3
 8.80925852E-09-9.94458078E-13 1.10172568E+04 2.93601364E+01                   4
C5H10-1    2/14/95      C   5H  10    0    0G   200.000  5000.000 1392.00      1
 1.45851539E+01 2.24072471E-02-7.63348025E-06 1.18188966E-09-6.84385139E-14    2
-1.00898205E+04-5.23683936E+01-1.06223481E+00 5.74218294E-02-3.74486890E-05    3
 1.27364989E-08-1.79609789E-12-4.46546666E+03 3.22739790E+01                   4
C5H10-2    2/14/95      C   5H  10    0    0G   200.000  5000.000 1389.00      1
 1.41109267E+01 2.28348272E-02-7.78626835E-06 1.20627491E-09-6.98795983E-14    2
-1.14336507E+04-5.01601163E+01-5.41560551E-01 5.39629918E-02-3.23508738E-05    3
 9.77416037E-09-1.18534668E-12-5.98606169E+03 2.97142748E+01                   4
IC5H12     1/14/95 THERMC   5H  12    0    0G   200.000  5000.000 1390.00      1
 1.57973145E+01 2.62613369E-02-9.00865195E-06 1.40120752E-09-8.13944079E-14    2
-2.72746817E+04-6.15788664E+01-1.34131759E+00 6.31399950E-02-3.89549917E-05    3
 1.24066911E-08-1.64037258E-12-2.09234825E+04 3.17254941E+01                   4
AC5H11     1/14/95 THERMC   5H  11    0    0G   200.000  5000.000 1394.00      1
 1.54462893E+01 2.39622161E-02-8.20367528E-06 1.27423726E-09-7.39454220E-14    2
-2.16148371E+03-5.71569289E+01-1.26189029E+00 6.24193976E-02-4.25746079E-05    3
 1.55480048E-08-2.39805575E-12 3.77128542E+03 3.29007293E+01                   4
BC5H11     1/14/95 THERMC   5H  11    0    0G   200.000  5000.000 1384.00      1
 1.31342839E+01 2.60923466E-02-8.97731137E-06 1.39920325E-09-8.13970860E-14    2
-4.27765409E+03-4.34471772E+01-3.04386354E+00 5.81995422E-02-3.16090839E-05    3
 7.90004927E-09-6.65198232E-13 1.99185425E+03 4.55946950E+01                   4
CC5H11     1/14/95 THERMC   5H  11    0    0G   200.000  5000.000 1384.00      1
 1.49694306E+01 2.41646361E-02-8.23351110E-06 1.27510885E-09-7.38548188E-14    2
-3.46419870E+03-5.37313736E+01-1.24027078E-01 5.36081314E-02-2.77532098E-05    3
 5.91091365E-09-2.25584141E-13 2.37706895E+03 2.94230230E+01                   4
DC5H11     1/14/95 THERMC   5H  11    0    0G   200.000  5000.000 1394.00      1
 1.54462893E+01 2.39622161E-02-8.20367528E-06 1.27423726E-09-7.39454220E-14    2
-2.16148371E+03-5.71569289E+01-1.26189029E+00 6.24193976E-02-4.25746079E-05    3
 1.55480048E-08-2.39805575E-12 3.77128542E+03 3.29007293E+01                   4
AC5H10     2/14/95      C   5H  10    0    0G   200.000  5000.000 1391.00      1
 1.45614087E+01 2.25370538E-02-7.70100060E-06 1.19467870E-09-6.92704808E-14    2
-1.18004520E+04-5.30651959E+01-2.76630603E-01 5.53539280E-02-3.54499620E-05    3
 1.19626854E-08-1.69878242E-12-6.39547297E+03 2.73911578E+01                   4
BC5H10     2/14/95      C   5H  10    0    0G   200.000  5000.000 1385.00      1
 1.39945443E+01 2.29446582E-02-7.82594153E-06 1.21260230E-09-7.02518457E-14    2
-1.31576943E+04-5.04083848E+01 1.20274147E+00 4.78872107E-02-2.48144766E-05    3
 5.73514355E-09-3.91266685E-13-8.15212335E+03 2.01592579E+01                   4
CC5H10     2/14/95      C   5H  10    0    0G   200.000  5000.000 1393.00      1
 1.46491909E+01 2.25422061E-02-7.72053001E-06 1.19958604E-09-6.96317745E-14    2
-1.11652332E+04-5.42252285E+01-1.83685605E+00 6.07709466E-02-4.21592576E-05    3
 1.56103972E-08-2.43142766E-12-5.34864282E+03 3.45203543E+01                   4
IC5H9      2/14/95      C   5H   9    0    0G   200.000  5000.000 1385.00      1
 1.45682106E+01 2.05021258E-02-7.11493758E-06 1.11535314E-09-6.51460929E-14    2
 5.04089704E+03-5.46330888E+01-3.17594304E-01 5.22454910E-02-3.25968130E-05    3
 1.03628050E-08-1.36066533E-12 1.05922826E+04 2.65205225E+01                   4
NC5H12     1/14/95 THERMC   5H  12    0    0G   200.000  5000.000 1390.00      1
 1.57257603E+01 2.61086045E-02-8.90970996E-06 1.38102248E-09-8.00296536E-14    2
-2.60519543E+04-6.03365457E+01-7.36766119E-01 6.07200973E-02-3.57592761E-05    3
 1.04907041E-08-1.21487315E-12-1.98934934E+04 2.95358286E+01                   4
C5H11-1    1/14/95 THERMC   5H  11    0    0G   200.000  5000.000 1397.00      1
 1.53234740E+01 2.39041200E-02-8.14771619E-06 1.26176236E-09-7.30677335E-14    2
-9.23241637E+02-5.49528859E+01-9.05255912E-01 6.10632852E-02-4.09491825E-05    3
 1.46093470E-08-2.18859615E-12 4.83995303E+03 3.25574963E+01                   4
C5H11-2    1/14/95 THERMC   5H  11    0    0G   200.000  5000.000 1377.00      1
 1.50998007E+01 2.37225333E-02-8.01388900E-06 1.23431039E-09-7.12300125E-14    2
-2.33420039E+03-5.29613979E+01 4.98943596E-01 5.09850184E-02-2.40687488E-05    3
 3.59465210E-09 3.01383099E-13 3.40702366E+03 2.78600953E+01                   4
C5H11-3    1/14/95 THERMC   5H  11    0    0G   200.000  5000.000 1377.00      1
 1.50998007E+01 2.37225333E-02-8.01388900E-06 1.23431039E-09-7.12300125E-14    2
-2.33420039E+03-5.36508796E+01 4.98943596E-01 5.09850184E-02-2.40687488E-05    3
 3.59465210E-09 3.01383099E-13 3.40702366E+03 2.71706137E+01                   4
NEOC5H12   1/14/95 THERMC   5H  12    0    0G   200.000  5000.000 1397.00      1
 1.74489302E+01 2.45462377E-02-8.35182479E-06 1.29219708E-09-7.47942850E-14    2
-2.92380333E+04-7.54173942E+01-2.88372771E+00 7.22417687E-02-5.11106166E-05    3
 1.87342407E-08-2.80628313E-12-2.22171069E+04 3.36765462E+01                   4
NEOC5H11   8/ 8/95 THERMC   5H  11    0    0G   200.000  5000.000 1396.00      1
 1.66238394E+01 2.27037884E-02-7.71624835E-06 1.19289853E-09-6.90060600E-14    2
-3.96463755E+03-6.44711904E+01-1.58140132E+00 6.57175067E-02-4.68120314E-05    3
 1.74732793E-08-2.68709925E-12 2.30933742E+03 3.31296742E+01                   4
C2H5O      3/12/95 THERMC   2H   5O   1    0G   200.000  5000.000 1389.00      1
 7.87339772E+00 1.13072907E-02-3.84421421E-06 5.94414105E-10-3.43894538E-14    2
-6.07274953E+03-1.73416790E+01 4.94420708E-01 2.71774434E-02-1.65909010E-05    3
 5.15204200E-09-6.48496915E-13-3.35252925E+03 2.28079378E+01                   4
CH3O2      8/ 2/95 THERMC   1H   3O   2    0G   200.000  5000.000 1385.00      1
 5.95787891E+00 7.90728626E-03-2.68246234E-06 4.13891337E-10-2.39007330E-14    2
-3.78224468E+02-3.53695139E+00 4.26146906E+00 1.00873599E-02-3.21506184E-06    3
 2.09409267E-10 4.18339103E-14 4.73129653E+02 6.34599067E+00                   4
C2H5O2     1/14/95 THERMC   2H   5O   2    0G   200.000  5000.000 1388.00      1
 9.51092710E+00 1.22676900E-02-4.22364452E-06 6.58474989E-10-3.83095208E-14    2
-6.76035950E+03-2.23410595E+01 1.77950508E+00 3.04938087E-02-2.16376209E-05    3
 8.68906296E-09-1.51788464E-12-3.99101974E+03 1.92919501E+01                   4
CH3O2H     8/ 2/95 THERMC   1H   4O   2    0G   200.000  5000.000 1390.00      1
 8.43117091E+00 8.06817909E-03-2.77094921E-06 4.31332243E-10-2.50692146E-14    2
-1.96678771E+04-1.86137916E+01 3.23442817E+00 1.90129767E-02-1.13386287E-05    3
 3.40306653E-09-4.11830222E-13-1.77197926E+04 9.75951075E+00                   4
C2H5O2H    1/14/95 THERMC   2H   6O   2    0G   200.000  5000.000 1387.00      1
 1.19434137E+01 1.25318009E-02-4.36306680E-06 6.85475481E-10-4.01001027E-14    2
-2.60583597E+04-3.61824080E+01 9.19554242E-01 3.86243355E-02-2.86589796E-05    3
 1.13083374E-08-1.86975416E-12-2.22070715E+04 2.29982352E+01                   4
C2H3O1-2   2/14/95      C   2H   3O   1    0G   200.000  5000.000 1491.00      1
 1.14373827E+01 4.23746386E-03-1.54815052E-06 2.51163559E-10-1.50252425E-14    2
 4.35403066E+03-3.40412712E+01 3.35999844E-01 3.09570853E-02-2.52838600E-05    3
 9.42237535E-09-1.30399273E-12 7.99950911E+03 2.50825660E+01                   4
CH3CO2     2/14/95      C   2H   3O   2    0G   200.000  5000.000 1395.00      1
 8.54059736E+00 8.32951214E-03-2.84722010E-06 4.41927196E-10-2.56373394E-14    2
-2.97290678E+04-2.03883545E+01 1.37440768E+00 2.49115604E-02-1.74308894E-05    3
 6.24799508E-09-9.09516835E-13-2.72330150E+04 1.81405454E+01                   4
C2H4O1-2   1/22/95 THERMC   2H   4O   1    0G   200.000  5000.000 1372.00      1
 8.34795960E+00 8.15801381E-03-2.90468986E-06 4.63272385E-10-2.73881080E-14    2
-1.05634815E+04-2.38497303E+01-8.04226714E-01 2.69991224E-02-1.65492748E-05    3
 4.38231846E-09-3.47708823E-13-7.15368299E+03 2.61680011E+01                   4
C2H4O2H    1/14/95 THERMC   2H   5O   2    0G   200.000  5000.000 1396.00      1
 1.16260435E+01 1.00826346E-02-3.47934362E-06 5.43394220E-10-3.16569294E-14    2
-9.10815195E+02-3.18535712E+01 8.13237801E-01 3.90063400E-02-3.40643855E-05    3
 1.55066226E-08-2.84069840E-12 2.50785787E+03 2.49684459E+01                   4
O2C2H4OH   2/14/95      C   2H   5O   3    0G   200.000  5000.000 1392.00      1
 1.07432659E+01 1.30957787E-02-4.45370088E-06 6.88548738E-10-3.98230113E-14    2
-2.55911274E+04-2.33254953E+01 4.11839445E+00 2.72240632E-02-1.60824430E-05    3
 5.17033408E-09-7.31610168E-13-2.30857785E+04 1.28482112E+01                   4
CH3CO3     6/26/95      C   2H   3O   3    0G   200.000  5000.000 1396.00      1
 1.15641474E+01 8.02672958E-03-2.77497463E-06 4.34069277E-10-2.53202435E-14    2
-1.93142188E+04-3.13182392E+01 2.61619505E+00 2.94830898E-02-2.23952554E-05    3
 8.56474251E-09-1.31255496E-12-1.62923875E+04 1.64911398E+01                   4
CH3CO3H    6/26/95      C   2H   4O   3    0G   200.000  5000.000 1391.00      1
 1.25060485E+01 9.47789695E-03-3.30402246E-06 5.19630793E-10-3.04233568E-14    2
-4.59856703E+04-3.79195947E+01 2.24135876E+00 3.37963514E-02-2.53887482E-05    3
 9.67583587E-09-1.49266157E-12-4.24677831E+04 1.70668133E+01                   4
C2H3CO     6/26/95      C   3H   3O   1    0G   200.000  5000.000 1393.00      1
 9.99505311E+00 7.34623223E-03-2.56370222E-06 4.03462270E-10-2.36317330E-14    2
 4.00522160E+03-2.67674022E+01 1.05143589E+00 3.06932973E-02-2.65560368E-05    3
 1.18183987E-08-2.11589812E-12 6.87879551E+03 2.04173489E+01                   4
C2H3CHO    6/26/95      C   3H   4O   1    0G   200.000  5000.000 1393.00      1
 1.04184959E+01 9.48963321E-03-3.29310529E-06 5.16279203E-10-3.01587291E-14    2
-1.49630281E+04-3.07235061E+01 2.92355162E-01 3.54321417E-02-2.94936324E-05    3
 1.28100124E-08-2.26144108E-12-1.16521584E+04 2.28878280E+01                   4
C3H5O      7/20/95      C   3H   5O   1    0G   200.000  5000.000 1380.00      1
 1.02551752E+01 1.14983720E-02-3.84645659E-06 5.88910346E-10-3.38557923E-14    2
 6.26560810E+03-2.77655042E+01 1.19822582E+00 3.05579837E-02-1.80630276E-05    3
 4.86150033E-09-4.19854562E-13 9.58217784E+03 2.15566221E+01                   4
C3H6OOH1-2 1/14/95 THERMC   3H   7O   2    0G   200.000  5000.000 1374.00      1
 1.46139382E+01 1.43723015E-02-4.88635144E-06 7.56519620E-10-4.38364992E-14    2
-6.46093249E+03-4.57473930E+01 1.91005011E+00 4.11666833E-02-2.51630217E-05    3
 7.11856873E-09-6.98838732E-13-1.79305093E+03 2.34514457E+01                   4
C3H6OOH1-3 1/14/95 THERMC   3H   7O   2    0G   200.000  5000.000 1395.00      1
 1.47851541E+01 1.45966257E-02-5.03219157E-06 7.85395030E-10-4.57339541E-14    2
-5.00973551E+03-4.74002200E+01 6.20977083E-01 5.10278151E-02-4.20397522E-05    3
 1.82613546E-08-3.23610636E-12-3.85059063E+02 2.75514057E+01                   4
C3H6OOH2-1  1/14/95 THERC   3H   7O   2    0G   200.000  5000.000 1399.00      1
 1.55027896E+01 1.39802008E-02-4.81811216E-06 7.51835399E-10-4.37743118E-14    2
-7.41601033E+03-5.23889736E+01-1.84042862E-01 5.64670638E-02-5.01611253E-05    3
 2.30526863E-08-4.23866481E-12-2.52333896E+03 2.98354826E+01                   4
C3H6OOH1-2O2 1/17/95 THEC   3H   7O   4    0G   200.000  5000.000 1406.00      1
 1.61717847E+01 1.94813778E-02-6.45709341E-06 9.80391473E-10-5.59678860E-14    2
-2.40847932E+04-4.89208446E+01 1.71524768E+00 6.39017825E-02-5.99765649E-05    3
 3.00798825E-08-5.96171595E-12-2.00197939E+04 2.51216690E+01                   4
C3H6OOH1-3O2 1/17/95 THEC   3H   7O   4    0G   200.000  5000.000 1388.00      1