/*--------------------------------*- C++ -*----------------------------------*\
  =========                 |
  \\      /  F ield         | OpenFOAM: The Open Source CFD Toolbox
   \\    /   O peration     | Website:  https://openfoam.org
    \\  /    A nd           | Version:  dev
     \\/     M anipulation  |
\*---------------------------------------------------------------------------*/
FoamFile
{
    format      ascii;
    class       volScalarField;
    location    "0";
    object      p;
}
// * * * * * * * * * * * * * * * * * * * * * * * * * * * * * * * * * * * * * //

dimensions      [1 -1 -2 0 0 0 0];

internalField
{
    type        zonal;

    defaultValue    1e5;

    zones
    {
        bubble
        {
            type        sphere;

            centre (0.5 0.5 0.5);
            radius 0.1;

            value       1e6;
        }
    }
}

boundaryField
{
    walls
    {
        type            calculated;
        value           uniform 1e5;
    }

    defaultFaces
    {
        type            empty;
    }
}

// ************************************************************************* //
