/*--------------------------------*- C++ -*----------------------------------*\
  =========                 |
  \\      /  F ield         | OpenFOAM: The Open Source CFD Toolbox
   \\    /   O peration     | Website:  https://openfoam.org
    \\  /    A nd           | Version:  dev
     \\/     M anipulation  |
\*---------------------------------------------------------------------------*/
FoamFile
{
    format      ascii;
    class       dictionary;
    object      PDRMeshDict;
}
// * * * * * * * * * * * * * * * * * * * * * * * * * * * * * * * * * * * * * //

//- Per faceSet the patch the faces should go into blocked baffles
blockedFaces ((blockedFacesSet blockedFaces));

//- Per faceSet the patch the faces should go into coupled baffles
coupledFaces
{
    coupledFacesSet
    {
        wallPatchName               baffleWall;
        cyclicMasterPatchName       baffleCyclic_half0;
    }
}

//- Name of cellSet that holds the cells to fully remove
blockedCells blockedCellsSet;

//- All exposed faces that are not specified in blockedFaces go into
//  this patch
defaultPatch outer;

// ************************************************************************* //
