/*--------------------------------*- C++ -*----------------------------------*\
  =========                 |
  \\      /  F ield         | OpenFOAM: The Open Source CFD Toolbox
   \\    /   O peration     | Website:  https://openfoam.org
    \\  /    A nd           | Version:  dev
     \\/     M anipulation  |
\*---------------------------------------------------------------------------*/
FoamFile
{
    format      ascii;
    class       dictionary;
    object      setFieldsDict;
}
// * * * * * * * * * * * * * * * * * * * * * * * * * * * * * * * * * * * * * //

defaultValues
{
    alpha.water 0;
    U           (0 0 0);
}

zones
{
    // Set cell values
    cells
    {
        type        box;

        box (0 0 -1) (0.1461 0.292 1);

        values
        {
            alpha.water 1;
        }
    }
}

extrapolatePatches
{
    "inlet|outlet"   (alpha.water);
}

// ************************************************************************* //
