/*--------------------------------*- C++ -*----------------------------------*\
| =========                 |                                                 |
| \\      /  F ield         | OpenFOAM: The Open Source CFD Toolbox           |
|  \\    /   O peration     | Version:  dev                                   |
|   \\  /    A nd           | Web:      www.OpenFOAM.org                      |
|    \\/     M anipulation  |                                                 |
\*---------------------------------------------------------------------------*/
FoamFile
{
    version     2.0;
    format      ascii;
    class       dictionary;
    object      wallFunctionDict;
}
// * * * * * * * * * * * * * * * * * * * * * * * * * * * * * * * * * * * * * //

tabulatedWallFunction SpaldingsLaw;

invertedTableName uPlusWallFunctionData;

dx              0.2;

x0              -3;

xMax            7;

log10           yes;

bound           yes;

SpaldingsLawCoeffs
{
    kappa           0.41;
    E               9.8;
}

// ************************************************************************* //
