/*--------------------------------*- C++ -*----------------------------------*\
  =========                 |
  \\      /  F ield         | OpenFOAM: The Open Source CFD Toolbox
   \\    /   O peration     | Website:  https://openfoam.org
    \\  /    A nd           | Version:  dev
     \\/     M anipulation  |
\*---------------------------------------------------------------------------*/
FoamFile
{
    format      ascii;
    class       volVectorField;
    location    "0";
    object      U;
}
// * * * * * * * * * * * * * * * * * * * * * * * * * * * * * * * * * * * * * //

dimensions      [velocity];

internalField   uniform (0 0 0);

boundaryField
{
    outerWall
    {
        type            noSlip;
    }

    axis
    {
        type            symmetryPlane;
    }

    nozzle
    {
        type            zeroGradient;
    }

    back
    {
        type            empty;
    }

    front
    {
        type            empty;
    }
}

// ************************************************************************* //
