/*--------------------------------*- C++ -*----------------------------------*\
  =========                 |
  \\      /  F ield         | OpenFOAM: The Open Source CFD Toolbox
   \\    /   O peration     | Website:  https://openfoam.org
    \\  /    A nd           | Version:  dev
     \\/     M anipulation  |
\*---------------------------------------------------------------------------*/
FoamFile
{
    version     2.0;
    format      ascii;
    class       volScalarField;
    object      alpha.phase1;
}
// * * * * * * * * * * * * * * * * * * * * * * * * * * * * * * * * * * * * * //

dimensions      [0 0 0 0 0 0 0];

internalField   uniform 0;

boundaryField
{
    ".*"
    {
        type            zeroGradient;
    }

    gasInlet
    {
        type            fixedValue;
        value           uniform 1;
    }

    outlet
    {
        type            inletOutlet;
        inletValue      uniform 0;
        value           $internalField;
    }

    "AMI.*"
    {
        type            cyclicAMI;
    }
}

// ************************************************************************* //
