/*--------------------------------*- C++ -*----------------------------------*\
  =========                 |
  \\      /  F ield         | OpenFOAM: The Open Source CFD Toolbox
   \\    /   O peration     | Website:  https://openfoam.org
    \\  /    A nd           | Version:  dev
     \\/     M anipulation  |
\*---------------------------------------------------------------------------*/
FoamFile
{
    format      ascii;
    class       dictionary;
    object      decomposeParDict;
}

// * * * * * * * * * * * * * * * * * * * * * * * * * * * * * * * * * * * * * //

numberOfSubdomains  6;

decomposer      hierarchical;
distributor     ptscotch;
// distributor     zoltan;
// libs            ("libzoltanDecomp.so");

hierarchicalCoeffs
{
    n               (3 2 1);
    order           xyz;
}

zoltanCoeffs
{
    lb_method       hypergraph;
    lb_approach     partition;
}


// ************************************************************************* //
