/*--------------------------------*- C++ -*----------------------------------*\
| =========                 |                                                 |
| \\      /  F ield         | OpenFOAM: The Open Source CFD Toolbox           |
|  \\    /   O peration     | Version:  dev                                   |
|   \\  /    A nd           | Website:  https://openfoam.org                  |
|    \\/     M anipulation  |                                                 |
\*---------------------------------------------------------------------------*/
FoamFile
{
    version     2.0;
    format      ascii;
    class       volScalarField;
    object      T;
}
// * * * * * * * * * * * * * * * * * * * * * * * * * * * * * * * * * * * * * //

#include "$FOAM_CASE/constant/initialConditions";

dimensions      [ 0 0 0 1 0 0 0 ];

internalField   uniform $Tinitial;

boundaryField
{
    wall
    {
        type            compressible::turbulentTemperatureCoupledBaffleMixed;
        value           $internalField;
        kappaMethod     solidThermo;
        kappa           kappa;
        Tnbr            T;
    }
}

// ************************************************************************* //
