/*--------------------------------*- C++ -*----------------------------------*\
  =========                 |
  \\      /  F ield         | OpenFOAM: The Open Source CFD Toolbox
   \\    /   O peration     | Website:  https://openfoam.org
    \\  /    A nd           | Version:  dev
     \\/     M anipulation  |
\*---------------------------------------------------------------------------*/
FoamFile
{
    format      ascii;
    class       volScalarField;
    location    "0";
    object      p;
}
// * * * * * * * * * * * * * * * * * * * * * * * * * * * * * * * * * * * * * //

dimensions      [kinematicPressure];

internalField   uniform 0;

boundaryField
{
    down
    {
        type            symmetryPlane;
    }

    right
    {
        type            fixedValue;
        value           uniform 0;
    }

    up
    {
        type            symmetryPlane;
    }

    left
    {
        type            zeroGradient;
    }

    cylinder
    {
        type            symmetry;
    }

    defaultFaces
    {
        type            empty;
    }
}

// ************************************************************************* //
