/*--------------------------------*- C++ -*----------------------------------*\
  =========                 |
  \\      /  F ield         | OpenFOAM: The Open Source CFD Toolbox
   \\    /   O peration     | Website:  https://openfoam.org
    \\  /    A nd           | Version:  dev
     \\/     M anipulation  |
\*---------------------------------------------------------------------------*/
FoamFile
{
    format      ascii;
    class       volVectorField;
    object      U;
}
// * * * * * * * * * * * * * * * * * * * * * * * * * * * * * * * * * * * * * //

Uinlet          0.2;

dimensions      [0 1 -1 0 0 0 0];

internalField   uniform (0 0 0);

boundaryField
{
    inlet
    {
        type            flowRateInletVelocity;
        meanVelocity    constant $Uinlet;
        profile         laminarBL;
        value           uniform (0 0 0);
    }

    outlet
    {
        type            pressureInletOutletVelocity;
        value           uniform (0 0 0);
    }

    wall
    {
        type            noSlip;
    }

    #includeEtc "caseDicts/setConstraintTypes"
}

// ************************************************************************* //
