/*--------------------------------*- C++ -*----------------------------------*\
  =========                 |
  \\      /  F ield         | OpenFOAM: The Open Source CFD Toolbox
   \\    /   O peration     | Website:  https://openfoam.org
    \\  /    A nd           | Version:  dev
     \\/     M anipulation  |
\*---------------------------------------------------------------------------*/
FoamFile
{
    format      ascii;
    class       dictionary;
    location    "system";
    object      controlDict;
}
// * * * * * * * * * * * * * * * * * * * * * * * * * * * * * * * * * * * * * //

application     foamRun;

solver          shockFluid;

startFrom       latestTime;

startTime       0;

stopAt          endTime;

endTime         1e-3;

deltaT          1e-7;

writeControl    runTime;

writeInterval   5e-5;

cycleWrite      0;

writeFormat     binary;

writePrecision  15;

writeCompression off;

timeFormat      general;

timePrecision   6;

runTimeModifiable true;

adjustTimeStep  no;

functions
{
    #includeFunc wallHeatFlux
    #includeFunc sample
}

// ************************************************************************* //
