/*--------------------------------*- C++ -*----------------------------------*\
  =========                 |
  \\      /  F ield         | OpenFOAM: The Open Source CFD Toolbox
   \\    /   O peration     | Website:  https://openfoam.org
    \\  /    A nd           | Version:  dev
     \\/     M anipulation  |
\*---------------------------------------------------------------------------*/
FoamFile
{
    format      ascii;
    class       volScalarField;
    location    "0";
    object      alpha.water;
}
// * * * * * * * * * * * * * * * * * * * * * * * * * * * * * * * * * * * * * //

dimensions      [];

internalField   uniform 0;

boundaryField
{
    #includeEtc "caseDicts/setConstraintTypes"

    "(inlet|inletSide)"
    {
        type            waveAlpha;
        libs            ("libwaves.so");
    }

    top
    {
        type            inletOutlet;
        inletValue      uniform 0;
        value           uniform 0;
    }

    bottom
    {
        type            zeroGradient;
    }
}


// ************************************************************************* //
