/*--------------------------------*- C++ -*----------------------------------*\
| =========                 |                                                 |
| \\      /  F ield         | OpenFOAM: The Open Source CFD Toolbox           |
|  \\    /   O peration     | Version:  dev                                   |
|   \\  /    A nd           | Website:  https://openfoam.org                  |
|    \\/     M anipulation  |                                                 |
\*---------------------------------------------------------------------------*/
FoamFile
{
    version     2.0;
    format      ascii;
    class       dictionary;
    location    "system";
    object      controlDict;
}
// * * * * * * * * * * * * * * * * * * * * * * * * * * * * * * * * * * * * * //

application     reactingParcelFoam;

startFrom       latestTime;

startTime       0;

stopAt          endTime;

endTime         300;

deltaT          1;

writeControl    timeStep;

writeInterval   10;

purgeWrite      20;

writeFormat     ascii;

writePrecision  10;

writeCompression off;

timeFormat      general;

timePrecision   6;

runTimeModifiable yes;


functions
{
    surfaceFieldValue1
    {
        type            surfaceFieldValue;
        libs            ("libfieldFunctionObjects.so");
        writeControl    writeTime;
        log             yes;
        writeFields     no;
        regionType      patch;
        name            outlet;
        operation       weightedAverage;
        weightField     phi;
        fields
        (
            H2O
            T
        );
    }
}


// ************************************************************************* //
