/*--------------------------------*- C++ -*----------------------------------*\
  =========                 |
  \\      /  F ield         | OpenFOAM: The Open Source CFD Toolbox
   \\    /   O peration     | Website:  https://openfoam.org
    \\  /    A nd           | Version:  dev
     \\/     M anipulation  |
\*---------------------------------------------------------------------------*/
FoamFile
{
    format      ascii;
    class       dictionary;
    object      meshDict.shapeControlFunctions;
}
// * * * * * * * * * * * * * * * * * * * * * * * * * * * * * * * * * * * * * //

angledDuct
{
    type                        searchableSurfaceControl;
    forceInitialPointInsertion  on;
    priority                    1;
    mode                        inside;
    surfaceCellSizeFunction     uniformValue;
    uniformValueCoeffs
    {
        surfaceCellSizeCoeff    1;
    }
    cellSizeFunction            uniform;
    uniformCoeffs
    {}
}

porosity
{
    type                        searchableSurfaceControl;
    forceInitialPointInsertion  on;
    priority                    1;
    mode                        inside;
    surfaceCellSizeFunction     uniformValue;
    uniformValueCoeffs
    {
        surfaceCellSizeCoeff    1;
    }
    cellSizeFunction            uniform;
    uniformCoeffs
    {}
}

// ************************************************************************* //
