/*--------------------------------*- C++ -*----------------------------------*\
| =========                 |                                                 |
| \\      /  F ield         | OpenFOAM: The Open Source CFD Toolbox           |
|  \\    /   O peration     | Version:  dev                                   |
|   \\  /    A nd           | Web:      www.OpenFOAM.org                      |
|    \\/     M anipulation  |                                                 |
\*---------------------------------------------------------------------------*/
FoamFile
{
    version     2.0;
    format      ascii;
    class       polyBoundaryMesh;
    location    "constant/polyMesh";
    object      boundary;
}
// * * * * * * * * * * * * * * * * * * * * * * * * * * * * * * * * * * * * * //

4
(
    patch1
    {
        type            patch;
        nFaces          2440;
        startFace       15316;
    }
    patch2
    {
        type            patch;
        nFaces          348;
        startFace       17756;
    }
    patch3
    {
        type            patch;
        nFaces          96;
        startFace       18104;
    }
    patch4
    {
        type            patch;
        nFaces          384;
        startFace       18200;
    }
)

// ************************************************************************* //
