/*--------------------------------*- C++ -*----------------------------------*\
  =========                 |
  \\      /  F ield         | OpenFOAM: The Open Source CFD Toolbox
   \\    /   O peration     | Website:  https://openfoam.org
    \\  /    A nd           | Version:  dev
     \\/     M anipulation  |
\*---------------------------------------------------------------------------*/
FoamFile
{
    version     2.0;
    format      ascii;
    class       featureEdgeMesh;
    location    "constant/triSurface";
    object      AMI.eMesh;
}
// * * * * * * * * * * * * * * * * * * * * * * * * * * * * * * * * * * * * * //


// points:

720
(
(0.0481177 -0.000839897 0)
(0.048125 1.17868e-17 0)
(0.0480957 -0.00167954 0)
(0.048059 -0.00251867 0)
(0.0480078 -0.00335703 0)
(0.0479419 -0.00419437 0)
(0.0478614 -0.00503043 0)
(0.0477663 -0.00586496 0)
(0.0476567 -0.00669771 0)
(0.0475325 -0.00752841 0)
(0.0473939 -0.00835682 0)
(0.0472408 -0.00918268 0)
(0.0470734 -0.0100058 0)
(0.0468916 -0.0108258 0)
(0.0466955 -0.0116425 0)
(0.0464852 -0.0124557 0)
(0.0462607 -0.013265 0)
(0.0460222 -0.0140704 0)
(0.0457696 -0.0148714 0)
(0.0455031 -0.015668 0)
(0.0452227 -0.0164597 0)
(0.0449286 -0.0172465 0)
(0.0446207 -0.0180279 0)
(0.0442993 -0.0188039 0)
(0.0439644 -0.0195742 0)
(0.0436161 -0.0203385 0)
(0.0432545 -0.0210966 0)
(0.0428797 -0.0218483 0)
(0.0424919 -0.0225933 0)
(0.0420911 -0.0233315 0)
(0.0416775 -0.0240625 0)
(0.0412512 -0.0247862 0)
(0.0408123 -0.0255024 0)
(0.040361 -0.0262108 0)
(0.0398974 -0.0269112 0)
(0.0394217 -0.0276034 0)
(0.0389339 -0.0282872 0)
(0.0384343 -0.0289623 0)
(0.037923 -0.0296287 0)
(0.0374001 -0.030286 0)
(0.0368659 -0.0309342 0)
(0.0363204 -0.0315728 0)
(0.0357638 -0.0322019 0)
(0.0351964 -0.0328212 0)
(0.0346182 -0.0334304 0)
(0.0340295 -0.0340295 0)
(0.0334304 -0.0346182 0)
(0.0328212 -0.0351964 0)
(0.0322019 -0.0357638 0)
(0.0315728 -0.0363204 0)
(0.0309342 -0.0368659 0)
(0.030286 -0.0374001 0)
(0.0296287 -0.037923 0)
(0.0289623 -0.0384343 0)
(0.0282872 -0.0389339 0)
(0.0276034 -0.0394217 0)
(0.0269112 -0.0398974 0)
(0.0262108 -0.040361 0)
(0.0255024 -0.0408123 0)
(0.0247862 -0.0412512 0)
(0.0240625 -0.0416775 0)
(0.0233315 -0.0420911 0)
(0.0225933 -0.0424919 0)
(0.0218483 -0.0428797 0)
(0.0210966 -0.0432545 0)
(0.0203385 -0.0436161 0)
(0.0195742 -0.0439644 0)
(0.0188039 -0.0442993 0)
(0.0180279 -0.0446207 0)
(0.0172465 -0.0449286 0)
(0.0164597 -0.0452227 0)
(0.015668 -0.0455031 0)
(0.0148714 -0.0457696 0)
(0.0140704 -0.0460222 0)
(0.013265 -0.0462607 0)
(0.0124557 -0.0464852 0)
(0.0116425 -0.0466955 0)
(0.0108258 -0.0468916 0)
(0.0100058 -0.0470734 0)
(0.00918268 -0.0472408 0)
(0.00835682 -0.0473939 0)
(0.00752841 -0.0475325 0)
(0.00669771 -0.0476567 0)
(0.00586496 -0.0477663 0)
(0.00503043 -0.0478614 0)
(0.00419437 -0.0479419 0)
(0.00335703 -0.0480078 0)
(0.00251867 -0.048059 0)
(0.00167954 -0.0480957 0)
(0.000839897 -0.0481177 0)
(2.94671e-18 -0.048125 0)
(-0.000839897 -0.0481177 0)
(-0.00167954 -0.0480957 0)
(-0.00251867 -0.048059 0)
(-0.00335703 -0.0480078 0)
(-0.00419437 -0.0479419 0)
(-0.00503043 -0.0478614 0)
(-0.00586496 -0.0477663 0)
(-0.00669771 -0.0476567 0)
(-0.00752841 -0.0475325 0)
(-0.00835682 -0.0473939 0)
(-0.00918268 -0.0472408 0)
(-0.0100058 -0.0470734 0)
(-0.0108258 -0.0468916 0)
(-0.0116425 -0.0466955 0)
(-0.0124557 -0.0464852 0)
(-0.013265 -0.0462607 0)
(-0.0140704 -0.0460222 0)
(-0.0148714 -0.0457696 0)
(-0.015668 -0.0455031 0)
(-0.0164597 -0.0452227 0)
(-0.0172465 -0.0449286 0)
(-0.0180279 -0.0446207 0)
(-0.0188039 -0.0442993 0)
(-0.0195742 -0.0439644 0)
(-0.0203385 -0.0436161 0)
(-0.0210966 -0.0432545 0)
(-0.0218483 -0.0428797 0)
(-0.0225933 -0.0424919 0)
(-0.0233315 -0.0420911 0)
(-0.0240625 -0.0416775 0)
(-0.0247862 -0.0412512 0)
(-0.0255024 -0.0408123 0)
(-0.0262108 -0.040361 0)
(-0.0269112 -0.0398974 0)
(-0.0276034 -0.0394217 0)
(-0.0282872 -0.0389339 0)
(-0.0289623 -0.0384343 0)
(-0.0296287 -0.037923 0)
(-0.030286 -0.0374001 0)
(-0.0309342 -0.0368659 0)
(-0.0315728 -0.0363204 0)
(-0.0322019 -0.0357638 0)
(-0.0328212 -0.0351964 0)
(-0.0334304 -0.0346182 0)
(-0.0340295 -0.0340295 0)
(-0.0346182 -0.0334304 0)
(-0.0351964 -0.0328212 0)
(-0.0357638 -0.0322019 0)
(-0.0363204 -0.0315728 0)
(-0.0368659 -0.0309342 0)
(-0.0374001 -0.030286 0)
(-0.037923 -0.0296287 0)
(-0.0384343 -0.0289623 0)
(-0.0389339 -0.0282872 0)
(-0.0394217 -0.0276034 0)
(-0.0398974 -0.0269112 0)
(-0.040361 -0.0262108 0)
(-0.0408123 -0.0255024 0)
(-0.0412512 -0.0247862 0)
(-0.0416775 -0.0240625 0)
(-0.0420911 -0.0233315 0)
(-0.0424919 -0.0225933 0)
(-0.0428797 -0.0218483 0)
(-0.0432545 -0.0210966 0)
(-0.0436161 -0.0203385 0)
(-0.0439644 -0.0195742 0)
(-0.0442993 -0.0188039 0)
(-0.0446207 -0.0180279 0)
(-0.0449286 -0.0172465 0)
(-0.0452227 -0.0164597 0)
(-0.0455031 -0.015668 0)
(-0.0457696 -0.0148714 0)
(-0.0460222 -0.0140704 0)
(-0.0462607 -0.013265 0)
(-0.0464852 -0.0124557 0)
(-0.0466955 -0.0116425 0)
(-0.0468916 -0.0108258 0)
(-0.0470734 -0.0100058 0)
(-0.0472408 -0.00918268 0)
(-0.0473939 -0.00835682 0)
(-0.0475325 -0.00752841 0)
(-0.0476567 -0.00669771 0)
(-0.0477663 -0.00586496 0)
(-0.0478614 -0.00503043 0)
(-0.0479419 -0.00419437 0)
(-0.0480078 -0.00335703 0)
(-0.048059 -0.00251867 0)
(-0.0480957 -0.00167954 0)
(-0.0481177 -0.000839897 0)
(-0.048125 -5.89342e-18 0)
(-0.0481177 0.000839897 0)
(-0.0480957 0.00167954 0)
(-0.048059 0.00251867 0)
(-0.0480078 0.00335703 0)
(-0.0479419 0.00419437 0)
(-0.0478614 0.00503043 0)
(-0.0477663 0.00586496 0)
(-0.0476567 0.00669771 0)
(-0.0475325 0.00752841 0)
(-0.0473939 0.00835682 0)
(-0.0472408 0.00918268 0)
(-0.0470734 0.0100058 0)
(-0.0468916 0.0108258 0)
(-0.0466955 0.0116425 0)
(-0.0464852 0.0124557 0)
(-0.0462607 0.013265 0)
(-0.0460222 0.0140704 0)
(-0.0457696 0.0148714 0)
(-0.0455031 0.015668 0)
(-0.0452227 0.0164597 0)
(-0.0449286 0.0172465 0)
(-0.0446207 0.0180279 0)
(-0.0442993 0.0188039 0)
(-0.0439644 0.0195742 0)
(-0.0436161 0.0203385 0)
(-0.0432545 0.0210966 0)
(-0.0428797 0.0218483 0)
(-0.0424919 0.0225933 0)
(-0.0420911 0.0233315 0)
(-0.0416775 0.0240625 0)
(-0.0412512 0.0247862 0)
(-0.0408123 0.0255024 0)
(-0.040361 0.0262108 0)
(-0.0398974 0.0269112 0)
(-0.0394217 0.0276034 0)
(-0.0389339 0.0282872 0)
(-0.0384343 0.0289623 0)
(-0.037923 0.0296287 0)
(-0.0374001 0.030286 0)
(-0.0368659 0.0309342 0)
(-0.0363204 0.0315728 0)
(-0.0357638 0.0322019 0)
(-0.0351964 0.0328212 0)
(-0.0346182 0.0334304 0)
(-0.0340295 0.0340295 0)
(-0.0334304 0.0346182 0)
(-0.0328212 0.0351964 0)
(-0.0322019 0.0357638 0)
(-0.0315728 0.0363204 0)
(-0.0309342 0.0368659 0)
(-0.030286 0.0374001 0)
(-0.0296287 0.037923 0)
(-0.0289623 0.0384343 0)
(-0.0282872 0.0389339 0)
(-0.0276034 0.0394217 0)
(-0.0269112 0.0398974 0)
(-0.0262108 0.040361 0)
(-0.0255024 0.0408123 0)
(-0.0247862 0.0412512 0)
(-0.0240625 0.0416775 0)
(-0.0233315 0.0420911 0)
(-0.0225933 0.0424919 0)
(-0.0218483 0.0428797 0)
(-0.0210966 0.0432545 0)
(-0.0203385 0.0436161 0)
(-0.0195742 0.0439644 0)
(-0.0188039 0.0442993 0)
(-0.0180279 0.0446207 0)
(-0.0172465 0.0449286 0)
(-0.0164597 0.0452227 0)
(-0.015668 0.0455031 0)
(-0.0148714 0.0457696 0)
(-0.0140704 0.0460222 0)
(-0.013265 0.0462607 0)
(-0.0124557 0.0464852 0)
(-0.0116425 0.0466955 0)
(-0.0108258 0.0468916 0)
(-0.0100058 0.0470734 0)
(-0.00918268 0.0472408 0)
(-0.00835682 0.0473939 0)
(-0.00752841 0.0475325 0)
(-0.00669771 0.0476567 0)
(-0.00586496 0.0477663 0)
(-0.00503043 0.0478614 0)
(-0.00419437 0.0479419 0)
(-0.00335703 0.0480078 0)
(-0.00251867 0.048059 0)
(-0.00167954 0.0480957 0)
(-0.000839897 0.0481177 0)
(-8.84013e-18 0.048125 0)
(0.000839897 0.0481177 0)
(0.00167954 0.0480957 0)
(0.00251867 0.048059 0)
(0.00335703 0.0480078 0)
(0.00419437 0.0479419 0)
(0.00503043 0.0478614 0)
(0.00586496 0.0477663 0)
(0.00669771 0.0476567 0)
(0.00752841 0.0475325 0)
(0.00835682 0.0473939 0)
(0.00918268 0.0472408 0)
(0.0100058 0.0470734 0)
(0.0108258 0.0468916 0)
(0.0116425 0.0466955 0)
(0.0124557 0.0464852 0)
(0.013265 0.0462607 0)
(0.0140704 0.0460222 0)
(0.0148714 0.0457696 0)
(0.015668 0.0455031 0)
(0.0164597 0.0452227 0)
(0.0172465 0.0449286 0)
(0.0180279 0.0446207 0)
(0.0188039 0.0442993 0)
(0.0195742 0.0439644 0)
(0.0203385 0.0436161 0)
(0.0210966 0.0432545 0)
(0.0218483 0.0428797 0)
(0.0225933 0.0424919 0)
(0.0233315 0.0420911 0)
(0.0240625 0.0416775 0)
(0.0247862 0.0412512 0)
(0.0255024 0.0408123 0)
(0.0262108 0.040361 0)
(0.0269112 0.0398974 0)
(0.0276034 0.0394217 0)
(0.0282872 0.0389339 0)
(0.0289623 0.0384343 0)
(0.0296287 0.037923 0)
(0.030286 0.0374001 0)
(0.0309342 0.0368659 0)
(0.0315728 0.0363204 0)
(0.0322019 0.0357638 0)
(0.0328212 0.0351964 0)
(0.0334304 0.0346182 0)
(0.0340295 0.0340295 0)
(0.0346182 0.0334304 0)
(0.0351964 0.0328212 0)
(0.0357638 0.0322019 0)
(0.0363204 0.0315728 0)
(0.0368659 0.0309342 0)
(0.0374001 0.030286 0)
(0.037923 0.0296287 0)
(0.0384343 0.0289623 0)
(0.0389339 0.0282872 0)
(0.0394217 0.0276034 0)
(0.0398974 0.0269112 0)
(0.040361 0.0262108 0)
(0.0408123 0.0255024 0)
(0.0412512 0.0247862 0)
(0.0416775 0.0240625 0)
(0.0420911 0.0233315 0)
(0.0424919 0.0225933 0)
(0.0428797 0.0218483 0)
(0.0432545 0.0210966 0)
(0.0436161 0.0203385 0)
(0.0439644 0.0195742 0)
(0.0442993 0.0188039 0)
(0.0446207 0.0180279 0)
(0.0449286 0.0172465 0)
(0.0452227 0.0164597 0)
(0.0455031 0.015668 0)
(0.0457696 0.0148714 0)
(0.0460222 0.0140704 0)
(0.0462607 0.013265 0)
(0.0464852 0.0124557 0)
(0.0466955 0.0116425 0)
(0.0468916 0.0108258 0)
(0.0470734 0.0100058 0)
(0.0472408 0.00918268 0)
(0.0473939 0.00835682 0)
(0.0475325 0.00752841 0)
(0.0476567 0.00669771 0)
(0.0477663 0.00586496 0)
(0.0478614 0.00503043 0)
(0.0479419 0.00419437 0)
(0.0480078 0.00335703 0)
(0.048059 0.00251867 0)
(0.0480957 0.00167954 0)
(0.0481177 0.000839897 0)
(0.048125 1.17868e-17 0.2)
(0.0481177 -0.000839897 0.2)
(0.0480957 -0.00167954 0.2)
(0.048059 -0.00251867 0.2)
(0.0480078 -0.00335703 0.2)
(0.0479419 -0.00419437 0.2)
(0.0478614 -0.00503043 0.2)
(0.0477663 -0.00586496 0.2)
(0.0476567 -0.00669771 0.2)
(0.0475325 -0.00752841 0.2)
(0.0473939 -0.00835682 0.2)
(0.0472408 -0.00918268 0.2)
(0.0470734 -0.0100058 0.2)
(0.0468916 -0.0108258 0.2)
(0.0466955 -0.0116425 0.2)
(0.0464852 -0.0124557 0.2)
(0.0462607 -0.013265 0.2)
(0.0460222 -0.0140704 0.2)
(0.0457696 -0.0148714 0.2)
(0.0455031 -0.015668 0.2)
(0.0452227 -0.0164597 0.2)
(0.0449286 -0.0172465 0.2)
(0.0446207 -0.0180279 0.2)
(0.0442993 -0.0188039 0.2)
(0.0439644 -0.0195742 0.2)
(0.0436161 -0.0203385 0.2)
(0.0432545 -0.0210966 0.2)
(0.0428797 -0.0218483 0.2)
(0.0424919 -0.0225933 0.2)
(0.0420911 -0.0233315 0.2)
(0.0416775 -0.0240625 0.2)
(0.0412512 -0.0247862 0.2)
(0.0408123 -0.0255024 0.2)
(0.040361 -0.0262108 0.2)
(0.0398974 -0.0269112 0.2)
(0.0394217 -0.0276034 0.2)
(0.0389339 -0.0282872 0.2)
(0.0384343 -0.0289623 0.2)
(0.037923 -0.0296287 0.2)
(0.0374001 -0.030286 0.2)
(0.0368659 -0.0309342 0.2)
(0.0363204 -0.0315728 0.2)
(0.0357638 -0.0322019 0.2)
(0.0351964 -0.0328212 0.2)
(0.0346182 -0.0334304 0.2)
(0.0340295 -0.0340295 0.2)
(0.0334304 -0.0346182 0.2)
(0.0328212 -0.0351964 0.2)
(0.0322019 -0.0357638 0.2)
(0.0315728 -0.0363204 0.2)
(0.0309342 -0.0368659 0.2)
(0.030286 -0.0374001 0.2)
(0.0296287 -0.037923 0.2)
(0.0289623 -0.0384343 0.2)
(0.0282872 -0.0389339 0.2)
(0.0276034 -0.0394217 0.2)
(0.0269112 -0.0398974 0.2)
(0.0262108 -0.040361 0.2)
(0.0255024 -0.0408123 0.2)
(0.0247862 -0.0412512 0.2)
(0.0240625 -0.0416775 0.2)
(0.0233315 -0.0420911 0.2)
(0.0225933 -0.0424919 0.2)
(0.0218483 -0.0428797 0.2)
(0.0210966 -0.0432545 0.2)
(0.0203385 -0.0436161 0.2)
(0.0195742 -0.0439644 0.2)
(0.0188039 -0.0442993 0.2)
(0.0180279 -0.0446207 0.2)
(0.0172465 -0.0449286 0.2)
(0.0164597 -0.0452227 0.2)
(0.015668 -0.0455031 0.2)
(0.0148714 -0.0457696 0.2)
(0.0140704 -0.0460222 0.2)
(0.013265 -0.0462607 0.2)
(0.0124557 -0.0464852 0.2)
(0.0116425 -0.0466955 0.2)
(0.0108258 -0.0468916 0.2)
(0.0100058 -0.0470734 0.2)
(0.00918268 -0.0472408 0.2)
(0.00835682 -0.0473939 0.2)
(0.00752841 -0.0475325 0.2)
(0.00669771 -0.0476567 0.2)
(0.00586496 -0.0477663 0.2)
(0.00503043 -0.0478614 0.2)
(0.00419437 -0.0479419 0.2)
(0.00335703 -0.0480078 0.2)
(0.00251867 -0.048059 0.2)
(0.00167954 -0.0480957 0.2)
(0.000839897 -0.0481177 0.2)
(2.94671e-18 -0.048125 0.2)
(-0.000839897 -0.0481177 0.2)
(-0.00167954 -0.0480957 0.2)
(-0.00251867 -0.048059 0.2)
(-0.00335703 -0.0480078 0.2)
(-0.00419437 -0.0479419 0.2)
(-0.00503043 -0.0478614 0.2)
(-0.00586496 -0.0477663 0.2)
(-0.00669771 -0.0476567 0.2)
(-0.00752841 -0.0475325 0.2)
(-0.00835682 -0.0473939 0.2)
(-0.00918268 -0.0472408 0.2)
(-0.0100058 -0.0470734 0.2)
(-0.0108258 -0.0468916 0.2)
(-0.0116425 -0.0466955 0.2)
(-0.0124557 -0.0464852 0.2)
(-0.013265 -0.0462607 0.2)
(-0.0140704 -0.0460222 0.2)
(-0.0148714 -0.0457696 0.2)
(-0.015668 -0.0455031 0.2)
(-0.0164597 -0.0452227 0.2)
(-0.0172465 -0.0449286 0.2)
(-0.0180279 -0.0446207 0.2)
(-0.0188039 -0.0442993 0.2)
(-0.0195742 -0.0439644 0.2)
(-0.0203385 -0.0436161 0.2)
(-0.0210966 -0.0432545 0.2)
(-0.0218483 -0.0428797 0.2)
(-0.0225933 -0.0424919 0.2)
(-0.0233315 -0.0420911 0.2)
(-0.0240625 -0.0416775 0.2)
(-0.0247862 -0.0412512 0.2)
(-0.0255024 -0.0408123 0.2)
(-0.0262108 -0.040361 0.2)
(-0.0269112 -0.0398974 0.2)
(-0.0276034 -0.0394217 0.2)
(-0.0282872 -0.0389339 0.2)
(-0.0289623 -0.0384343 0.2)
(-0.0296287 -0.037923 0.2)
(-0.030286 -0.0374001 0.2)
(-0.0309342 -0.0368659 0.2)
(-0.0315728 -0.0363204 0.2)
(-0.0322019 -0.0357638 0.2)
(-0.0328212 -0.0351964 0.2)
(-0.0334304 -0.0346182 0.2)
(-0.0340295 -0.0340295 0.2)
(-0.0346182 -0.0334304 0.2)
(-0.0351964 -0.0328212 0.2)
(-0.0357638 -0.0322019 0.2)
(-0.0363204 -0.0315728 0.2)
(-0.0368659 -0.0309342 0.2)
(-0.0374001 -0.030286 0.2)
(-0.037923 -0.0296287 0.2)
(-0.0384343 -0.0289623 0.2)
(-0.0389339 -0.0282872 0.2)
(-0.0394217 -0.0276034 0.2)
(-0.0398974 -0.0269112 0.2)
(-0.040361 -0.0262108 0.2)
(-0.0408123 -0.0255024 0.2)
(-0.0412512 -0.0247862 0.2)
(-0.0416775 -0.0240625 0.2)
(-0.0420911 -0.0233315 0.2)
(-0.0424919 -0.0225933 0.2)
(-0.0428797 -0.0218483 0.2)
(-0.0432545 -0.0210966 0.2)
(-0.0436161 -0.0203385 0.2)
(-0.0439644 -0.0195742 0.2)
(-0.0442993 -0.0188039 0.2)
(-0.0446207 -0.0180279 0.2)
(-0.0449286 -0.0172465 0.2)
(-0.0452227 -0.0164597 0.2)
(-0.0455031 -0.015668 0.2)
(-0.0457696 -0.0148714 0.2)
(-0.0460222 -0.0140704 0.2)
(-0.0462607 -0.013265 0.2)
(-0.0464852 -0.0124557 0.2)
(-0.0466955 -0.0116425 0.2)
(-0.0468916 -0.0108258 0.2)
(-0.0470734 -0.0100058 0.2)
(-0.0472408 -0.00918268 0.2)
(-0.0473939 -0.00835682 0.2)
(-0.0475325 -0.00752841 0.2)
(-0.0476567 -0.00669771 0.2)
(-0.0477663 -0.00586496 0.2)
(-0.0478614 -0.00503043 0.2)
(-0.0479419 -0.00419437 0.2)
(-0.0480078 -0.00335703 0.2)
(-0.048059 -0.00251867 0.2)
(-0.0480957 -0.00167954 0.2)
(-0.0481177 -0.000839897 0.2)
(-0.048125 -5.89342e-18 0.2)
(-0.0481177 0.000839897 0.2)
(-0.0480957 0.00167954 0.2)
(-0.048059 0.00251867 0.2)
(-0.0480078 0.00335703 0.2)
(-0.0479419 0.00419437 0.2)
(-0.0478614 0.00503043 0.2)
(-0.0477663 0.00586496 0.2)
(-0.0476567 0.00669771 0.2)
(-0.0475325 0.00752841 0.2)
(-0.0473939 0.00835682 0.2)
(-0.0472408 0.00918268 0.2)
(-0.0470734 0.0100058 0.2)
(-0.0468916 0.0108258 0.2)
(-0.0466955 0.0116425 0.2)
(-0.0464852 0.0124557 0.2)
(-0.0462607 0.013265 0.2)
(-0.0460222 0.0140704 0.2)
(-0.0457696 0.0148714 0.2)
(-0.0455031 0.015668 0.2)
(-0.0452227 0.0164597 0.2)
(-0.0449286 0.0172465 0.2)
(-0.0446207 0.0180279 0.2)
(-0.0442993 0.0188039 0.2)
(-0.0439644 0.0195742 0.2)
(-0.0436161 0.0203385 0.2)
(-0.0432545 0.0210966 0.2)
(-0.0428797 0.0218483 0.2)
(-0.0424919 0.0225933 0.2)
(-0.0420911 0.0233315 0.2)
(-0.0416775 0.0240625 0.2)
(-0.0412512 0.0247862 0.2)
(-0.0408123 0.0255024 0.2)
(-0.040361 0.0262108 0.2)
(-0.0398974 0.0269112 0.2)
(-0.0394217 0.0276034 0.2)
(-0.0389339 0.0282872 0.2)
(-0.0384343 0.0289623 0.2)
(-0.037923 0.0296287 0.2)
(-0.0374001 0.030286 0.2)
(-0.0368659 0.0309342 0.2)
(-0.0363204 0.0315728 0.2)
(-0.0357638 0.0322019 0.2)
(-0.0351964 0.0328212 0.2)
(-0.0346182 0.0334304 0.2)
(-0.0340295 0.0340295 0.2)
(-0.0334304 0.0346182 0.2)
(-0.0328212 0.0351964 0.2)
(-0.0322019 0.0357638 0.2)
(-0.0315728 0.0363204 0.2)
(-0.0309342 0.0368659 0.2)
(-0.030286 0.0374001 0.2)
(-0.0296287 0.037923 0.2)
(-0.0289623 0.0384343 0.2)
(-0.0282872 0.0389339 0.2)
(-0.0276034 0.0394217 0.2)
(-0.0269112 0.0398974 0.2)
(-0.0262108 0.040361 0.2)
(-0.0255024 0.0408123 0.2)
(-0.0247862 0.0412512 0.2)
(-0.0240625 0.0416775 0.2)
(-0.0233315 0.0420911 0.2)
(-0.0225933 0.0424919 0.2)
(-0.0218483 0.0428797 0.2)
(-0.0210966 0.0432545 0.2)
(-0.0203385 0.0436161 0.2)
(-0.0195742 0.0439644 0.2)
(-0.0188039 0.0442993 0.2)
(-0.0180279 0.0446207 0.2)
(-0.0172465 0.0449286 0.2)
(-0.0164597 0.0452227 0.2)
(-0.015668 0.0455031 0.2)
(-0.0148714 0.0457696 0.2)
(-0.0140704 0.0460222 0.2)
(-0.013265 0.0462607 0.2)
(-0.0124557 0.0464852 0.2)
(-0.0116425 0.0466955 0.2)
(-0.0108258 0.0468916 0.2)
(-0.0100058 0.0470734 0.2)
(-0.00918268 0.0472408 0.2)
(-0.00835682 0.0473939 0.2)
(-0.00752841 0.0475325 0.2)
(-0.00669771 0.0476567 0.2)
(-0.00586496 0.0477663 0.2)
(-0.00503043 0.0478614 0.2)
(-0.00419437 0.0479419 0.2)
(-0.00335703 0.0480078 0.2)
(-0.00251867 0.048059 0.2)
(-0.00167954 0.0480957 0.2)
(-0.000839897 0.0481177 0.2)
(-8.84013e-18 0.048125 0.2)
(0.000839897 0.0481177 0.2)
(0.00167954 0.0480957 0.2)
(0.00251867 0.048059 0.2)
(0.00335703 0.0480078 0.2)
(0.00419437 0.0479419 0.2)
(0.00503043 0.0478614 0.2)
(0.00586496 0.0477663 0.2)
(0.00669771 0.0476567 0.2)
(0.00752841 0.0475325 0.2)
(0.00835682 0.0473939 0.2)
(0.00918268 0.0472408 0.2)
(0.0100058 0.0470734 0.2)
(0.0108258 0.0468916 0.2)
(0.0116425 0.0466955 0.2)
(0.0124557 0.0464852 0.2)
(0.013265 0.0462607 0.2)
(0.0140704 0.0460222 0.2)
(0.0148714 0.0457696 0.2)
(0.015668 0.0455031 0.2)
(0.0164597 0.0452227 0.2)
(0.0172465 0.0449286 0.2)
(0.0180279 0.0446207 0.2)
(0.0188039 0.0442993 0.2)
(0.0195742 0.0439644 0.2)
(0.0203385 0.0436161 0.2)
(0.0210966 0.0432545 0.2)
(0.0218483 0.0428797 0.2)
(0.0225933 0.0424919 0.2)
(0.0233315 0.0420911 0.2)
(0.0240625 0.0416775 0.2)
(0.0247862 0.0412512 0.2)
(0.0255024 0.0408123 0.2)
(0.0262108 0.040361 0.2)
(0.0269112 0.0398974 0.2)
(0.0276034 0.0394217 0.2)
(0.0282872 0.0389339 0.2)
(0.0289623 0.0384343 0.2)
(0.0296287 0.037923 0.2)
(0.030286 0.0374001 0.2)
(0.0309342 0.0368659 0.2)
(0.0315728 0.0363204 0.2)
(0.0322019 0.0357638 0.2)
(0.0328212 0.0351964 0.2)
(0.0334304 0.0346182 0.2)
(0.0340295 0.0340295 0.2)
(0.0346182 0.0334304 0.2)
(0.0351964 0.0328212 0.2)
(0.0357638 0.0322019 0.2)
(0.0363204 0.0315728 0.2)
(0.0368659 0.0309342 0.2)
(0.0374001 0.030286 0.2)
(0.037923 0.0296287 0.2)
(0.0384343 0.0289623 0.2)
(0.0389339 0.0282872 0.2)
(0.0394217 0.0276034 0.2)
(0.0398974 0.0269112 0.2)
(0.040361 0.0262108 0.2)
(0.0408123 0.0255024 0.2)
(0.0412512 0.0247862 0.2)
(0.0416775 0.0240625 0.2)
(0.0420911 0.0233315 0.2)
(0.0424919 0.0225933 0.2)
(0.0428797 0.0218483 0.2)
(0.0432545 0.0210966 0.2)
(0.0436161 0.0203385 0.2)
(0.0439644 0.0195742 0.2)
(0.0442993 0.0188039 0.2)
(0.0446207 0.0180279 0.2)
(0.0449286 0.0172465 0.2)
(0.0452227 0.0164597 0.2)
(0.0455031 0.015668 0.2)
(0.0457696 0.0148714 0.2)
(0.0460222 0.0140704 0.2)
(0.0462607 0.013265 0.2)
(0.0464852 0.0124557 0.2)
(0.0466955 0.0116425 0.2)
(0.0468916 0.0108258 0.2)
(0.0470734 0.0100058 0.2)
(0.0472408 0.00918268 0.2)
(0.0473939 0.00835682 0.2)
(0.0475325 0.00752841 0.2)
(0.0476567 0.00669771 0.2)
(0.0477663 0.00586496 0.2)
(0.0478614 0.00503043 0.2)
(0.0479419 0.00419437 0.2)
(0.0480078 0.00335703 0.2)
(0.048059 0.00251867 0.2)
(0.0480957 0.00167954 0.2)
(0.0481177 0.000839897 0.2)
)


// edges:

720
(
(0 1)
(2 0)
(3 2)
(4 3)
(5 4)
(6 5)
(7 6)
(8 7)
(9 8)
(10 9)
(11 10)
(12 11)
(13 12)
(14 13)
(15 14)
(16 15)
(17 16)
(18 17)
(19 18)
(20 19)
(21 20)
(22 21)
(23 22)
(24 23)
(25 24)
(26 25)
(27 26)
(28 27)
(29 28)
(30 29)
(31 30)
(32 31)
(33 32)
(34 33)
(35 34)
(36 35)
(37 36)
(38 37)
(39 38)
(40 39)
(41 40)
(42 41)
(43 42)
(44 43)
(45 44)
(46 45)
(47 46)
(48 47)
(49 48)
(50 49)
(51 50)
(52 51)
(53 52)
(54 53)
(55 54)
(56 55)
(57 56)
(58 57)
(59 58)
(60 59)
(61 60)
(62 61)
(63 62)
(64 63)
(65 64)
(66 65)
(67 66)
(68 67)
(69 68)
(70 69)
(71 70)
(72 71)
(73 72)
(74 73)
(75 74)
(76 75)
(77 76)
(78 77)
(79 78)
(80 79)
(81 80)
(82 81)
(83 82)
(84 83)
(85 84)
(86 85)
(87 86)
(88 87)
(89 88)
(90 89)
(91 90)
(92 91)
(93 92)
(94 93)
(95 94)
(96 95)
(97 96)
(98 97)
(99 98)
(100 99)
(101 100)
(102 101)
(103 102)
(104 103)
(105 104)
(106 105)
(107 106)
(108 107)
(109 108)
(110 109)
(111 110)
(112 111)
(113 112)
(114 113)
(115 114)
(116 115)
(117 116)
(118 117)
(119 118)
(120 119)
(121 120)
(122 121)
(123 122)
(124 123)
(125 124)
(126 125)
(127 126)
(128 127)
(129 128)
(130 129)
(131 130)
(132 131)
(133 132)
(134 133)
(135 134)
(136 135)
(137 136)
(138 137)
(139 138)
(140 139)
(141 140)
(142 141)
(143 142)
(144 143)
(145 144)
(146 145)
(147 146)
(148 147)
(149 148)
(150 149)
(151 150)
(152 151)
(153 152)
(154 153)
(155 154)
(156 155)
(157 156)
(158 157)
(159 158)
(160 159)
(161 160)
(162 161)
(163 162)
(164 163)
(165 164)
(166 165)
(167 166)
(168 167)
(169 168)
(170 169)
(171 170)
(172 171)
(173 172)
(174 173)
(175 174)
(176 175)
(177 176)
(178 177)
(179 178)
(180 179)
(181 180)
(182 181)
(183 182)
(184 183)
(185 184)
(186 185)
(187 186)
(188 187)
(189 188)
(190 189)
(191 190)
(192 191)
(193 192)
(194 193)
(195 194)
(196 195)
(197 196)
(198 197)
(199 198)
(200 199)
(201 200)
(202 201)
(203 202)
(204 203)
(205 204)
(206 205)
(207 206)
(208 207)
(209 208)
(210 209)
(211 210)
(212 211)
(213 212)
(214 213)
(215 214)
(216 215)
(217 216)
(218 217)
(219 218)
(220 219)
(221 220)
(222 221)
(223 222)
(224 223)
(225 224)
(226 225)
(227 226)
(228 227)
(229 228)
(230 229)
(231 230)
(232 231)
(233 232)
(234 233)
(235 234)
(236 235)
(237 236)
(238 237)
(239 238)
(240 239)
(241 240)
(242 241)
(243 242)
(244 243)
(245 244)
(246 245)
(247 246)
(248 247)
(249 248)
(250 249)
(251 250)
(252 251)
(253 252)
(254 253)
(255 254)
(256 255)
(257 256)
(258 257)
(259 258)
(260 259)
(261 260)
(262 261)
(263 262)
(264 263)
(265 264)
(266 265)
(267 266)
(268 267)
(269 268)
(270 269)
(271 270)
(272 271)
(273 272)
(274 273)
(275 274)
(276 275)
(277 276)
(278 277)
(279 278)
(280 279)
(281 280)
(282 281)
(283 282)
(284 283)
(285 284)
(286 285)
(287 286)
(288 287)
(289 288)
(290 289)
(291 290)
(292 291)
(293 292)
(294 293)
(295 294)
(296 295)
(297 296)
(298 297)
(299 298)
(300 299)
(301 300)
(302 301)
(303 302)
(304 303)
(305 304)
(306 305)
(307 306)
(308 307)
(309 308)
(310 309)
(311 310)
(312 311)
(313 312)
(314 313)
(315 314)
(316 315)
(317 316)
(318 317)
(319 318)
(320 319)
(321 320)
(322 321)
(323 322)
(324 323)
(325 324)
(326 325)
(327 326)
(328 327)
(329 328)
(330 329)
(331 330)
(332 331)
(333 332)
(334 333)
(335 334)
(336 335)
(337 336)
(338 337)
(339 338)
(340 339)
(341 340)
(342 341)
(343 342)
(344 343)
(345 344)
(346 345)
(347 346)
(348 347)
(349 348)
(350 349)
(351 350)
(352 351)
(353 352)
(354 353)
(355 354)
(356 355)
(357 356)
(358 357)
(359 358)
(1 359)
(360 361)
(361 362)
(362 363)
(363 364)
(364 365)
(365 366)
(366 367)
(367 368)
(368 369)
(369 370)
(370 371)
(371 372)
(372 373)
(373 374)
(374 375)
(375 376)
(376 377)
(377 378)
(378 379)
(379 380)
(380 381)
(381 382)
(382 383)
(383 384)
(384 385)
(385 386)
(386 387)
(387 388)
(388 389)
(389 390)
(390 391)
(391 392)
(392 393)
(393 394)
(394 395)
(395 396)
(396 397)
(397 398)
(398 399)
(399 400)
(400 401)
(401 402)
(402 403)
(403 404)
(404 405)
(405 406)
(406 407)
(407 408)
(408 409)
(409 410)
(410 411)
(411 412)
(412 413)
(413 414)
(414 415)
(415 416)
(416 417)
(417 418)
(418 419)
(419 420)
(420 421)
(421 422)
(422 423)
(423 424)
(424 425)
(425 426)
(426 427)
(427 428)
(428 429)
(429 430)
(430 431)
(431 432)
(432 433)
(433 434)
(434 435)
(435 436)
(436 437)
(437 438)
(438 439)
(439 440)
(440 441)
(441 442)
(442 443)
(443 444)
(444 445)
(445 446)
(446 447)
(447 448)
(448 449)
(449 450)
(450 451)
(451 452)
(452 453)
(453 454)
(454 455)
(455 456)
(456 457)
(457 458)
(458 459)
(459 460)
(460 461)
(461 462)
(462 463)
(463 464)
(464 465)
(465 466)
(466 467)
(467 468)
(468 469)
(469 470)
(470 471)
(471 472)
(472 473)
(473 474)
(474 475)
(475 476)
(476 477)
(477 478)
(478 479)
(479 480)
(480 481)
(481 482)
(482 483)
(483 484)
(484 485)
(485 486)
(486 487)
(487 488)
(488 489)
(489 490)
(490 491)
(491 492)
(492 493)
(493 494)
(494 495)
(495 496)
(496 497)
(497 498)
(498 499)
(499 500)
(500 501)
(501 502)
(502 503)
(503 504)
(504 505)
(505 506)
(506 507)
(507 508)
(508 509)
(509 510)
(510 511)
(511 512)
(512 513)
(513 514)
(514 515)
(515 516)
(516 517)
(517 518)
(518 519)
(519 520)
(520 521)
(521 522)
(522 523)
(523 524)
(524 525)
(525 526)
(526 527)
(527 528)
(528 529)
(529 530)
(530 531)
(531 532)
(532 533)
(533 534)
(534 535)
(535 536)
(536 537)
(537 538)
(538 539)
(539 540)
(540 541)
(541 542)
(542 543)
(543 544)
(544 545)
(545 546)
(546 547)
(547 548)
(548 549)
(549 550)
(550 551)
(551 552)
(552 553)
(553 554)
(554 555)
(555 556)
(556 557)
(557 558)
(558 559)
(559 560)
(560 561)
(561 562)
(562 563)
(563 564)
(564 565)
(565 566)
(566 567)
(567 568)
(568 569)
(569 570)
(570 571)
(571 572)
(572 573)
(573 574)
(574 575)
(575 576)
(576 577)
(577 578)
(578 579)
(579 580)
(580 581)
(581 582)
(582 583)
(583 584)
(584 585)
(585 586)
(586 587)
(587 588)
(588 589)
(589 590)
(590 591)
(591 592)
(592 593)
(593 594)
(594 595)
(595 596)
(596 597)
(597 598)
(598 599)
(599 600)
(600 601)
(601 602)
(602 603)
(603 604)
(604 605)
(605 606)
(606 607)
(607 608)
(608 609)
(609 610)
(610 611)
(611 612)
(612 613)
(613 614)
(614 615)
(615 616)
(616 617)
(617 618)
(618 619)
(619 620)
(620 621)
(621 622)
(622 623)
(623 624)
(624 625)
(625 626)
(626 627)
(627 628)
(628 629)
(629 630)
(630 631)
(631 632)
(632 633)
(633 634)
(634 635)
(635 636)
(636 637)
(637 638)
(638 639)
(639 640)
(640 641)
(641 642)
(642 643)
(643 644)
(644 645)
(645 646)
(646 647)
(647 648)
(648 649)
(649 650)
(650 651)
(651 652)
(652 653)
(653 654)
(654 655)
(655 656)
(656 657)
(657 658)
(658 659)
(659 660)
(660 661)
(661 662)
(662 663)
(663 664)
(664 665)
(665 666)
(666 667)
(667 668)
(668 669)
(669 670)
(670 671)
(671 672)
(672 673)
(673 674)
(674 675)
(675 676)
(676 677)
(677 678)
(678 679)
(679 680)
(680 681)
(681 682)
(682 683)
(683 684)
(684 685)
(685 686)
(686 687)
(687 688)
(688 689)
(689 690)
(690 691)
(691 692)
(692 693)
(693 694)
(694 695)
(695 696)
(696 697)
(697 698)
(698 699)
(699 700)
(700 701)
(701 702)
(702 703)
(703 704)
(704 705)
(705 706)
(706 707)
(707 708)
(708 709)
(709 710)
(710 711)
(711 712)
(712 713)
(713 714)
(714 715)
(715 716)
(716 717)
(717 718)
(718 719)
(719 360)
)

// * * * * * * * * * * * * * * * * * * * * * * * * * * * * * * * * * * * * * //


// ************************************************************************* //
