/*--------------------------------*- C++ -*----------------------------------*\
| =========                 |                                                 |
| \\      /  F ield         | OpenFOAM: The Open Source CFD Toolbox           |
|  \\    /   O peration     | Version:  dev                                   |
|   \\  /    A nd           | Website:  https://openfoam.org                  |
|    \\/     M anipulation  |                                                 |
\*---------------------------------------------------------------------------*/
FoamFile
{
    version     2.0;
    format      ascii;
    class       featureEdgeMesh;
    location    "constant/triSurface";
    object      rotorBlades.eMesh;
}
// * * * * * * * * * * * * * * * * * * * * * * * * * * * * * * * * * * * * * //


// points:

104
(
(0.0375 9.18455e-18 0.04)
(2.29614e-18 -0.0375 0.04)
(0.0125 3.06152e-18 0.04)
(-0.0375 -4.59227e-18 0.04)
(7.65379e-19 -0.0125 0.04)
(-6.88841e-18 0.0375 0.04)
(-0.0125 -1.53076e-18 0.04)
(0.0375 9.18455e-18 0.08)
(-2.29614e-18 0.0125 0.04)
(2.29614e-18 -0.0375 0.08)
(0.0125 3.06152e-18 0.08)
(-0.0375 -4.59227e-18 0.08)
(7.65379e-19 -0.0125 0.08)
(-6.88841e-18 0.0375 0.08)
(-0.0125 -1.53076e-18 0.08)
(-2.29614e-18 0.0125 0.08)
(-6.88841e-18 0.0375 0.055)
(-6.88841e-18 0.0375 0.06)
(0.0375 9.18455e-18 0.065)
(0.0375 9.18455e-18 0.06)
(-0.0125 -1.53076e-18 0.06)
(-0.0125 -1.53076e-18 0.055)
(-4.13305e-18 0.0225 0.04)
(-5.0515e-18 0.0275 0.04)
(0.0225 5.51073e-18 0.08)
(0.0275 6.73533e-18 0.08)
(2.29614e-18 -0.0375 0.06)
(2.29614e-18 -0.0375 0.065)
(-2.29614e-18 0.0125 0.06)
(-2.29614e-18 0.0125 0.055)
(0.0125 3.06152e-18 0.06)
(0.0125 3.06152e-18 0.065)
(0.0325 7.95994e-18 0.04)
(0.0275 6.73533e-18 0.04)
(1.68383e-18 -0.0275 0.08)
(1.37768e-18 -0.0225 0.08)
(-0.0375 -4.59227e-18 0.06)
(-0.0375 -4.59227e-18 0.065)
(7.65379e-19 -0.0125 0.065)
(7.65379e-19 -0.0125 0.06)
(1.68383e-18 -0.0275 0.04)
(1.98999e-18 -0.0325 0.04)
(-0.0275 -3.36767e-18 0.08)
(-0.0225 -2.75536e-18 0.08)
(-6.88841e-18 0.0375 0.065)
(0.0375 9.18455e-18 0.07)
(-0.0125 -1.53076e-18 0.065)
(-0.0275 -3.36767e-18 0.04)
(-0.0325 -3.97997e-18 0.04)
(-5.0515e-18 0.0275 0.08)
(-4.13305e-18 0.0225 0.08)
(2.29614e-18 -0.0375 0.07)
(-2.29614e-18 0.0125 0.065)
(0.0125 3.06152e-18 0.07)
(-5.96996e-18 0.0325 0.04)
(0.0325 7.95994e-18 0.08)
(-0.0375 -4.59227e-18 0.07)
(7.65379e-19 -0.0125 0.07)
(0.0375 9.18455e-18 0.045)
(1.98999e-18 -0.0325 0.08)
(-6.88841e-18 0.0375 0.07)
(0.0375 9.18455e-18 0.075)
(-0.0125 -1.53076e-18 0.07)
(2.29614e-18 -0.0375 0.045)
(0.0125 3.06152e-18 0.045)
(0.0175 4.28612e-18 0.04)
(-0.0325 -3.97997e-18 0.08)
(2.29614e-18 -0.0375 0.075)
(-2.29614e-18 0.0125 0.07)
(0.0125 3.06152e-18 0.075)
(-0.0375 -4.59227e-18 0.045)
(1.07153e-18 -0.0175 0.04)
(7.65379e-19 -0.0125 0.045)
(-5.96996e-18 0.0325 0.08)
(-0.0375 -4.59227e-18 0.075)
(7.65379e-19 -0.0125 0.075)
(-6.88841e-18 0.0375 0.045)
(0.0375 9.18455e-18 0.05)
(-0.0175 -2.14306e-18 0.04)
(-0.0125 -1.53076e-18 0.045)
(-6.88841e-18 0.0375 0.075)
(-0.0125 -1.53076e-18 0.075)
(2.29614e-18 -0.0375 0.05)
(-3.21459e-18 0.0175 0.04)
(-2.29614e-18 0.0125 0.045)
(0.0125 3.06152e-18 0.05)
(-2.29614e-18 0.0125 0.075)
(0.0175 4.28612e-18 0.08)
(-0.0375 -4.59227e-18 0.05)
(7.65379e-19 -0.0125 0.05)
(0.0225 5.51073e-18 0.04)
(1.07153e-18 -0.0175 0.08)
(-6.88841e-18 0.0375 0.05)
(0.0375 9.18455e-18 0.055)
(-0.0125 -1.53076e-18 0.05)
(1.37768e-18 -0.0225 0.04)
(-0.0175 -2.14306e-18 0.08)
(2.29614e-18 -0.0375 0.055)
(-2.29614e-18 0.0125 0.05)
(0.0125 3.06152e-18 0.055)
(-0.0225 -2.75536e-18 0.04)
(-3.21459e-18 0.0175 0.08)
(-0.0375 -4.59227e-18 0.055)
(7.65379e-19 -0.0125 0.055)
)


// edges:

104
(
(16 17)
(18 19)
(20 21)
(22 23)
(24 25)
(26 27)
(28 29)
(30 31)
(32 33)
(34 35)
(36 37)
(38 39)
(40 41)
(42 43)
(17 44)
(45 18)
(46 20)
(47 48)
(49 50)
(27 51)
(52 28)
(31 53)
(23 54)
(25 55)
(37 56)
(57 38)
(0 32)
(58 0)
(59 34)
(44 60)
(61 45)
(62 46)
(41 1)
(1 63)
(2 64)
(65 2)
(66 42)
(51 67)
(68 52)
(53 69)
(48 3)
(3 70)
(4 71)
(72 4)
(73 49)
(56 74)
(75 57)
(54 5)
(5 76)
(77 58)
(6 78)
(79 6)
(60 80)
(7 61)
(55 7)
(81 62)
(63 82)
(8 83)
(84 8)
(64 85)
(9 59)
(67 9)
(86 68)
(69 10)
(10 87)
(70 88)
(89 72)
(90 65)
(11 66)
(74 11)
(12 75)
(91 12)
(76 92)
(93 77)
(94 79)
(71 95)
(13 73)
(80 13)
(14 81)
(96 14)
(82 97)
(98 84)
(85 99)
(78 100)
(15 86)
(101 15)
(88 102)
(103 89)
(83 22)
(87 24)
(92 16)
(19 93)
(21 94)
(33 90)
(35 91)
(97 26)
(29 98)
(99 30)
(95 40)
(43 96)
(102 36)
(39 103)
(100 47)
(50 101)
)

// * * * * * * * * * * * * * * * * * * * * * * * * * * * * * * * * * * * * * //


// ************************************************************************* //
