/*--------------------------------*- C++ -*----------------------------------*\
| =========                 |                                                 |
| \\      /  F ield         | OpenFOAM: The Open Source CFD Toolbox           |
|  \\    /   O peration     | Version:  dev                                   |
|   \\  /    A nd           | Website:  https://openfoam.org                  |
|    \\/     M anipulation  |                                                 |
\*---------------------------------------------------------------------------*/
FoamFile
{
    version     2.0;
    format      ascii;
    class       featureEdgeMesh;
    location    "constant/triSurface";
    object      statorBlades.eMesh;
}
// * * * * * * * * * * * * * * * * * * * * * * * * * * * * * * * * * * * * * //


// points:

352
(
(0.08 1.95937e-17 0)
(4.89843e-18 -0.08 0)
(-0.08 -9.79685e-18 0)
(-1.46953e-17 0.08 0)
(0.1 2.44921e-17 0)
(6.12303e-18 -0.1 0)
(-0.1 -1.22461e-17 0)
(-1.83691e-17 0.1 0)
(0.08 1.95937e-17 0.2)
(4.89843e-18 -0.08 0.2)
(-0.08 -9.79685e-18 0.2)
(-1.46953e-17 0.08 0.2)
(0.1 2.44921e-17 0.2)
(6.12303e-18 -0.1 0.2)
(-0.1 -1.22461e-17 0.2)
(-1.83691e-17 0.1 0.2)
(-1.83691e-17 0.1 0.13)
(-1.83691e-17 0.1 0.135)
(0.08 1.95937e-17 0.065)
(0.08 1.95937e-17 0.07)
(0.08 1.95937e-17 0.135)
(0.08 1.95937e-17 0.14)
(4.89843e-18 -0.08 0.07)
(4.89843e-18 -0.08 0.065)
(4.89843e-18 -0.08 0.14)
(4.89843e-18 -0.08 0.135)
(0.1 2.44921e-17 0.02)
(0.1 2.44921e-17 0.015)
(-0.08 -9.79685e-18 0.07)
(-0.08 -9.79685e-18 0.065)
(0.1 2.44921e-17 0.09)
(0.1 2.44921e-17 0.085)
(-0.08 -9.79685e-18 0.14)
(-0.08 -9.79685e-18 0.135)
(6.12303e-18 -0.1 0.015)
(6.12303e-18 -0.1 0.02)
(-1.46953e-17 0.08 0.07)
(-1.46953e-17 0.08 0.065)
(0.1 2.44921e-17 0.16)
(0.1 2.44921e-17 0.155)
(6.12303e-18 -0.1 0.085)
(6.12303e-18 -0.1 0.09)
(-0.1 -1.22461e-17 0.015)
(-0.1 -1.22461e-17 0.02)
(-1.46953e-17 0.08 0.14)
(-1.46953e-17 0.08 0.135)
(6.12303e-18 -0.1 0.155)
(6.12303e-18 -0.1 0.16)
(-0.1 -1.22461e-17 0.085)
(-0.1 -1.22461e-17 0.09)
(-1.83691e-17 0.1 0.015)
(-1.83691e-17 0.1 0.02)
(-0.1 -1.22461e-17 0.155)
(-0.1 -1.22461e-17 0.16)
(-1.83691e-17 0.1 0.085)
(-1.83691e-17 0.1 0.09)
(0.08 1.95937e-17 0.02)
(0.08 1.95937e-17 0.025)
(-1.83691e-17 0.1 0.155)
(-1.83691e-17 0.1 0.16)
(0.08 1.95937e-17 0.09)
(0.08 1.95937e-17 0.095)
(4.89843e-18 -0.08 0.025)
(4.89843e-18 -0.08 0.02)
(0.08 1.95937e-17 0.16)
(0.08 1.95937e-17 0.165)
(4.89843e-18 -0.08 0.095)
(4.89843e-18 -0.08 0.09)
(-0.08 -9.79685e-18 0.025)
(-0.08 -9.79685e-18 0.02)
(4.89843e-18 -0.08 0.165)
(4.89843e-18 -0.08 0.16)
(0.1 2.44921e-17 0.045)
(0.1 2.44921e-17 0.04)
(-0.08 -9.79685e-18 0.095)
(-0.08 -9.79685e-18 0.09)
(-1.46953e-17 0.08 0.025)
(-1.46953e-17 0.08 0.02)
(0.1 2.44921e-17 0.115)
(0.1 2.44921e-17 0.11)
(-0.08 -9.79685e-18 0.165)
(-0.08 -9.79685e-18 0.16)
(6.12303e-18 -0.1 0.04)
(6.12303e-18 -0.1 0.045)
(-1.46953e-17 0.08 0.095)
(-1.46953e-17 0.08 0.09)
(0.1 2.44921e-17 0.185)
(0.1 2.44921e-17 0.18)
(6.12303e-18 -0.1 0.11)
(6.12303e-18 -0.1 0.115)
(-0.1 -1.22461e-17 0.04)
(-0.1 -1.22461e-17 0.045)
(-1.46953e-17 0.08 0.165)
(-1.46953e-17 0.08 0.16)
(6.12303e-18 -0.1 0.18)
(6.12303e-18 -0.1 0.185)
(-0.1 -1.22461e-17 0.11)
(-0.1 -1.22461e-17 0.115)
(-1.83691e-17 0.1 0.04)
(-1.83691e-17 0.1 0.045)
(-0.1 -1.22461e-17 0.18)
(-0.1 -1.22461e-17 0.185)
(-1.83691e-17 0.1 0.11)
(-1.83691e-17 0.1 0.115)
(0.08 1.95937e-17 0.045)
(0.08 1.95937e-17 0.05)
(-1.83691e-17 0.1 0.18)
(-1.83691e-17 0.1 0.185)
(0.08 1.95937e-17 0.115)
(0.08 1.95937e-17 0.12)
(4.89843e-18 -0.08 0.05)
(4.89843e-18 -0.08 0.045)
(0.08 1.95937e-17 0.185)
(0.08 1.95937e-17 0.19)
(4.89843e-18 -0.08 0.12)
(4.89843e-18 -0.08 0.115)
(-0.08 -9.79685e-18 0.05)
(-0.08 -9.79685e-18 0.045)
(4.89843e-18 -0.08 0.19)
(4.89843e-18 -0.08 0.185)
(0.1 2.44921e-17 0.07)
(0.1 2.44921e-17 0.065)
(-0.08 -9.79685e-18 0.12)
(-0.08 -9.79685e-18 0.115)
(-1.46953e-17 0.08 0.05)
(-1.46953e-17 0.08 0.045)
(0.1 2.44921e-17 0.14)
(0.1 2.44921e-17 0.135)
(-0.08 -9.79685e-18 0.19)
(-0.08 -9.79685e-18 0.185)
(6.12303e-18 -0.1 0.065)
(6.12303e-18 -0.1 0.07)
(-1.46953e-17 0.08 0.12)
(-1.46953e-17 0.08 0.115)
(6.12303e-18 -0.1 0.135)
(6.12303e-18 -0.1 0.14)
(-0.1 -1.22461e-17 0.065)
(-0.1 -1.22461e-17 0.07)
(-1.46953e-17 0.08 0.19)
(-1.46953e-17 0.08 0.185)
(-0.1 -1.22461e-17 0.135)
(-0.1 -1.22461e-17 0.14)
(-1.83691e-17 0.1 0.065)
(-1.83691e-17 0.1 0.07)
(0.08 1.95937e-17 0.005)
(0.085 2.08183e-17 0)
(-1.83691e-17 0.1 0.14)
(0.08 1.95937e-17 0.075)
(5.20458e-18 -0.085 0)
(4.89843e-18 -0.08 0.005)
(0.08 1.95937e-17 0.145)
(4.89843e-18 -0.08 0.075)
(-0.085 -1.04092e-17 0)
(-0.08 -9.79685e-18 0.005)
(4.89843e-18 -0.08 0.145)
(0.1 2.44921e-17 0.025)
(-0.08 -9.79685e-18 0.075)
(-1.56137e-17 0.085 0)
(-1.46953e-17 0.08 0.005)
(0.1 2.44921e-17 0.095)
(-0.08 -9.79685e-18 0.145)
(6.12303e-18 -0.1 0.025)
(-1.46953e-17 0.08 0.075)
(0.1 2.44921e-17 0.165)
(6.12303e-18 -0.1 0.095)
(-0.1 -1.22461e-17 0.025)
(-1.46953e-17 0.08 0.145)
(0.09 2.20429e-17 0)
(6.12303e-18 -0.1 0.165)
(-0.1 -1.22461e-17 0.095)
(-1.83691e-17 0.1 0.025)
(-0.1 -1.22461e-17 0.165)
(-1.83691e-17 0.1 0.095)
(5.51073e-18 -0.09 0)
(0.08 1.95937e-17 0.03)
(-1.83691e-17 0.1 0.165)
(0.08 1.95937e-17 0.1)
(-0.09 -1.10215e-17 0)
(4.89843e-18 -0.08 0.03)
(0.08 1.95937e-17 0.17)
(4.89843e-18 -0.08 0.1)
(-1.65322e-17 0.09 0)
(-0.08 -9.79685e-18 0.03)
(4.89843e-18 -0.08 0.17)
(0.1 2.44921e-17 0.05)
(-0.08 -9.79685e-18 0.1)
(-1.46953e-17 0.08 0.03)
(0.095 2.32675e-17 0)
(0.1 2.44921e-17 0.12)
(-0.08 -9.79685e-18 0.17)
(6.12303e-18 -0.1 0.05)
(-1.46953e-17 0.08 0.1)
(0.1 2.44921e-17 0.19)
(6.12303e-18 -0.1 0.12)
(-0.1 -1.22461e-17 0.05)
(5.81688e-18 -0.095 0)
(-1.46953e-17 0.08 0.17)
(6.12303e-18 -0.1 0.19)
(-0.1 -1.22461e-17 0.12)
(-1.83691e-17 0.1 0.05)
(-0.1 -1.22461e-17 0.19)
(-0.095 -1.16338e-17 0)
(-1.83691e-17 0.1 0.12)
(0.08 1.95937e-17 0.055)
(-1.83691e-17 0.1 0.19)
(0.08 1.95937e-17 0.125)
(-1.74506e-17 0.095 0)
(4.89843e-18 -0.08 0.055)
(0.08 1.95937e-17 0.195)
(4.89843e-18 -0.08 0.125)
(0.1 2.44921e-17 0.005)
(-0.08 -9.79685e-18 0.055)
(4.89843e-18 -0.08 0.195)
(0.1 2.44921e-17 0.075)
(-0.08 -9.79685e-18 0.125)
(6.12303e-18 -0.1 0.005)
(-1.46953e-17 0.08 0.055)
(0.1 2.44921e-17 0.145)
(-0.08 -9.79685e-18 0.195)
(6.12303e-18 -0.1 0.075)
(-0.1 -1.22461e-17 0.005)
(-1.46953e-17 0.08 0.125)
(6.12303e-18 -0.1 0.145)
(-0.1 -1.22461e-17 0.075)
(-1.83691e-17 0.1 0.005)
(-1.46953e-17 0.08 0.195)
(-0.1 -1.22461e-17 0.145)
(-1.83691e-17 0.1 0.075)
(0.08 1.95937e-17 0.01)
(-1.83691e-17 0.1 0.145)
(0.08 1.95937e-17 0.08)
(4.89843e-18 -0.08 0.01)
(0.08 1.95937e-17 0.15)
(4.89843e-18 -0.08 0.08)
(-0.08 -9.79685e-18 0.01)
(4.89843e-18 -0.08 0.15)
(0.1 2.44921e-17 0.03)
(-0.08 -9.79685e-18 0.08)
(-1.46953e-17 0.08 0.01)
(0.1 2.44921e-17 0.1)
(-0.08 -9.79685e-18 0.15)
(6.12303e-18 -0.1 0.03)
(-1.46953e-17 0.08 0.08)
(0.1 2.44921e-17 0.17)
(6.12303e-18 -0.1 0.1)
(-0.1 -1.22461e-17 0.03)
(-1.46953e-17 0.08 0.15)
(6.12303e-18 -0.1 0.17)
(-0.1 -1.22461e-17 0.1)
(-1.83691e-17 0.1 0.03)
(-0.1 -1.22461e-17 0.17)
(-1.83691e-17 0.1 0.1)
(0.08 1.95937e-17 0.035)
(-1.83691e-17 0.1 0.17)
(0.08 1.95937e-17 0.105)
(4.89843e-18 -0.08 0.035)
(0.08 1.95937e-17 0.175)
(4.89843e-18 -0.08 0.105)
(-0.08 -9.79685e-18 0.035)
(4.89843e-18 -0.08 0.175)
(0.1 2.44921e-17 0.055)
(-0.08 -9.79685e-18 0.105)
(-1.46953e-17 0.08 0.035)
(0.1 2.44921e-17 0.125)
(-0.08 -9.79685e-18 0.175)
(6.12303e-18 -0.1 0.055)
(-1.46953e-17 0.08 0.105)
(0.1 2.44921e-17 0.195)
(6.12303e-18 -0.1 0.125)
(-0.1 -1.22461e-17 0.055)
(-1.46953e-17 0.08 0.175)
(6.12303e-18 -0.1 0.195)
(-0.1 -1.22461e-17 0.125)
(-1.83691e-17 0.1 0.055)
(-0.1 -1.22461e-17 0.195)
(-1.83691e-17 0.1 0.125)
(0.08 1.95937e-17 0.06)
(-1.83691e-17 0.1 0.195)
(0.08 1.95937e-17 0.13)
(4.89843e-18 -0.08 0.06)
(0.085 2.08183e-17 0.2)
(4.89843e-18 -0.08 0.13)
(5.20458e-18 -0.085 0.2)
(0.1 2.44921e-17 0.01)
(-0.08 -9.79685e-18 0.06)
(-0.085 -1.04092e-17 0.2)
(0.1 2.44921e-17 0.08)
(-0.08 -9.79685e-18 0.13)
(6.12303e-18 -0.1 0.01)
(-1.46953e-17 0.08 0.06)
(0.1 2.44921e-17 0.15)
(6.12303e-18 -0.1 0.08)
(-1.56137e-17 0.085 0.2)
(-0.1 -1.22461e-17 0.01)
(-1.46953e-17 0.08 0.13)
(6.12303e-18 -0.1 0.15)
(-0.1 -1.22461e-17 0.08)
(0.09 2.20429e-17 0.2)
(-1.83691e-17 0.1 0.01)
(-0.1 -1.22461e-17 0.15)
(5.51073e-18 -0.09 0.2)
(-1.83691e-17 0.1 0.08)
(0.08 1.95937e-17 0.015)
(-1.83691e-17 0.1 0.15)
(-0.09 -1.10215e-17 0.2)
(0.08 1.95937e-17 0.085)
(4.89843e-18 -0.08 0.015)
(0.08 1.95937e-17 0.155)
(-1.65322e-17 0.09 0.2)
(4.89843e-18 -0.08 0.085)
(0.095 2.32675e-17 0.2)
(-0.08 -9.79685e-18 0.015)
(4.89843e-18 -0.08 0.155)
(0.1 2.44921e-17 0.035)
(-0.08 -9.79685e-18 0.085)
(5.81688e-18 -0.095 0.2)
(-1.46953e-17 0.08 0.015)
(0.1 2.44921e-17 0.105)
(-0.08 -9.79685e-18 0.155)
(6.12303e-18 -0.1 0.035)
(-0.095 -1.16338e-17 0.2)
(-1.46953e-17 0.08 0.085)
(0.1 2.44921e-17 0.175)
(6.12303e-18 -0.1 0.105)
(-0.1 -1.22461e-17 0.035)
(-1.74506e-17 0.095 0.2)
(-1.46953e-17 0.08 0.155)
(6.12303e-18 -0.1 0.175)
(-0.1 -1.22461e-17 0.105)
(-1.83691e-17 0.1 0.035)
(-0.1 -1.22461e-17 0.175)
(-1.83691e-17 0.1 0.105)
(0.08 1.95937e-17 0.04)
(-1.83691e-17 0.1 0.175)
(0.08 1.95937e-17 0.11)
(4.89843e-18 -0.08 0.04)
(0.08 1.95937e-17 0.18)
(4.89843e-18 -0.08 0.11)
(-0.08 -9.79685e-18 0.04)
(4.89843e-18 -0.08 0.18)
(0.1 2.44921e-17 0.06)
(-0.08 -9.79685e-18 0.11)
(-1.46953e-17 0.08 0.04)
(0.1 2.44921e-17 0.13)
(-0.08 -9.79685e-18 0.18)
(6.12303e-18 -0.1 0.06)
(-1.46953e-17 0.08 0.11)
(6.12303e-18 -0.1 0.13)
(-0.1 -1.22461e-17 0.06)
(-1.46953e-17 0.08 0.18)
(-0.1 -1.22461e-17 0.13)
(-1.83691e-17 0.1 0.06)
)


// edges:

352
(
(16 17)
(18 19)
(20 21)
(22 23)
(24 25)
(26 27)
(28 29)
(30 31)
(32 33)
(34 35)
(36 37)
(38 39)
(40 41)
(42 43)
(44 45)
(46 47)
(48 49)
(50 51)
(52 53)
(54 55)
(56 57)
(58 59)
(60 61)
(62 63)
(64 65)
(66 67)
(68 69)
(70 71)
(72 73)
(74 75)
(76 77)
(78 79)
(80 81)
(82 83)
(84 85)
(86 87)
(88 89)
(90 91)
(92 93)
(94 95)
(96 97)
(98 99)
(100 101)
(102 103)
(104 105)
(106 107)
(108 109)
(110 111)
(112 113)
(114 115)
(116 117)
(118 119)
(120 121)
(122 123)
(124 125)
(126 127)
(128 129)
(130 131)
(132 133)
(134 135)
(136 137)
(138 139)
(140 141)
(142 143)
(0 144)
(145 0)
(17 146)
(19 147)
(1 148)
(149 1)
(21 150)
(151 22)
(2 152)
(153 2)
(154 24)
(155 26)
(156 28)
(3 157)
(158 3)
(159 30)
(160 32)
(35 161)
(162 36)
(163 38)
(41 164)
(43 165)
(166 44)
(167 145)
(47 168)
(49 169)
(51 170)
(53 171)
(55 172)
(148 173)
(57 174)
(59 175)
(61 176)
(152 177)
(178 62)
(65 179)
(180 66)
(157 181)
(182 68)
(183 70)
(184 72)
(185 74)
(186 76)
(187 167)
(188 78)
(189 80)
(83 190)
(191 84)
(192 86)
(89 193)
(91 194)
(173 195)
(196 92)
(95 197)
(97 198)
(99 199)
(101 200)
(177 201)
(103 202)
(105 203)
(107 204)
(109 205)
(181 206)
(207 110)
(113 208)
(209 114)
(4 187)
(210 4)
(211 116)
(212 118)
(213 120)
(214 122)
(195 5)
(5 215)
(216 124)
(217 126)
(218 128)
(131 219)
(201 6)
(6 220)
(221 132)
(135 222)
(137 223)
(206 7)
(7 224)
(225 138)
(141 226)
(143 227)
(144 228)
(146 229)
(147 230)
(231 149)
(150 232)
(233 151)
(234 153)
(235 154)
(236 155)
(237 156)
(238 158)
(239 159)
(240 160)
(161 241)
(242 162)
(243 163)
(164 244)
(165 245)
(246 166)
(168 247)
(169 248)
(170 249)
(171 250)
(172 251)
(174 252)
(175 253)
(176 254)
(255 178)
(179 256)
(257 180)
(258 182)
(259 183)
(260 184)
(261 185)
(262 186)
(263 188)
(264 189)
(190 265)
(266 191)
(267 192)
(193 268)
(194 269)
(270 196)
(197 271)
(198 272)
(199 273)
(200 274)
(202 275)
(203 276)
(204 277)
(205 278)
(279 207)
(208 8)
(8 280)
(281 209)
(9 212)
(282 9)
(283 210)
(284 211)
(10 218)
(285 10)
(286 213)
(287 214)
(215 288)
(289 216)
(290 217)
(219 291)
(11 225)
(292 11)
(220 293)
(294 221)
(222 295)
(223 296)
(280 297)
(224 298)
(226 299)
(300 282)
(227 301)
(228 302)
(229 303)
(304 285)
(230 305)
(306 231)
(232 307)
(308 292)
(309 233)
(297 310)
(311 234)
(312 235)
(313 236)
(314 237)
(315 300)
(316 238)
(317 239)
(318 240)
(241 319)
(320 304)
(321 242)
(322 243)
(244 323)
(245 324)
(325 308)
(326 246)
(247 327)
(248 328)
(249 329)
(12 267)
(310 12)
(250 330)
(13 315)
(271 13)
(251 331)
(252 332)
(14 320)
(274 14)
(253 333)
(15 325)
(277 15)
(254 334)
(335 255)
(256 336)
(337 257)
(338 258)
(339 259)
(340 260)
(341 261)
(342 262)
(343 263)
(344 264)
(265 345)
(346 266)
(268 347)
(269 348)
(349 270)
(272 350)
(273 351)
(275 16)
(276 18)
(278 20)
(23 279)
(25 281)
(27 283)
(29 284)
(31 286)
(33 287)
(288 34)
(37 289)
(39 290)
(291 40)
(293 42)
(45 294)
(295 46)
(296 48)
(298 50)
(299 52)
(301 54)
(302 56)
(303 58)
(305 60)
(63 306)
(307 64)
(67 309)
(69 311)
(71 312)
(73 313)
(75 314)
(77 316)
(79 317)
(81 318)
(319 82)
(85 321)
(87 322)
(323 88)
(324 90)
(93 326)
(327 94)
(328 96)
(329 98)
(330 100)
(331 102)
(332 104)
(333 106)
(334 108)
(111 335)
(336 112)
(115 337)
(117 338)
(119 339)
(121 340)
(123 341)
(125 342)
(127 343)
(129 344)
(345 130)
(133 346)
(347 134)
(348 136)
(139 349)
(350 140)
(351 142)
)

// * * * * * * * * * * * * * * * * * * * * * * * * * * * * * * * * * * * * * //


// ************************************************************************* //
