/*--------------------------------*- C++ -*----------------------------------*\
  =========                 |
  \\      /  F ield         | OpenFOAM: The Open Source CFD Toolbox
   \\    /   O peration     | Website:  https://openfoam.org
    \\  /    A nd           | Version:  dev
     \\/     M anipulation  |
\*---------------------------------------------------------------------------*/
FoamFile
{
    format      ascii;
    class       dictionary;
    location    "constant";
    object      combustionProperties;
}
// * * * * * * * * * * * * * * * * * * * * * * * * * * * * * * * * * * * * * //

laminarFlameSpeed
{
    model           unstrained;

    unstrainedLaminarFlameSpeed
    {
        model           constant;

        equivalenceRatio 1;

        Su              0.3 [m/s];
    }
}

flameWrinkling
{
    model           linearEquilibrium;
    // model           cubicEquilibrium;

    equilibrium
    {
        model      constant;
        XiEq       5;
    }
}


// ************************************************************************* //
