/*--------------------------------*- C++ -*----------------------------------*\
  =========                 |
  \\      /  F ield         | OpenFOAM: The Open Source CFD Toolbox
   \\    /   O peration     | Website:  https://openfoam.org
    \\  /    A nd           | Version:  dev
     \\/     M anipulation  |
\*---------------------------------------------------------------------------*/
FoamFile
{
    format      ascii;
    class       volScalarField;
    location    "0";
    object      k;
}
// * * * * * * * * * * * * * * * * * * * * * * * * * * * * * * * * * * * * * //

dimensions      [0 2 -2 0 0 0 0];

internalField   uniform 1000;

boundaryField
{
    INLE1
    {
        type            inletOutlet;
        inletValue      uniform 1000;
        value           uniform 1000;
    }
    OUTL2
    {
        type            inletOutlet;
        inletValue      uniform 1000;
        value           uniform 1000;
    }
    SYMP3
    {
        type            empty;
    }
    WALL10
    {
        type            kqRWallFunction;
        value           uniform 1000;
    }
}


// ************************************************************************* //
