/*--------------------------------*- C++ -*----------------------------------*\
  =========                 |
  \\      /  F ield         | OpenFOAM: The Open Source CFD Toolbox
   \\    /   O peration     | Website:  https://openfoam.org
    \\  /    A nd           | Version:  dev
     \\/     M anipulation  |
\*---------------------------------------------------------------------------*/
FoamFile
{
    version     2.0;
    format      ascii;
    class       dictionary;
    location    "constant";
    object      interfacialProperties;
}
// * * * * * * * * * * * * * * * * * * * * * * * * * * * * * * * * * * * * * //

dragModel1          SchillerNaumann;
dragModel2          SchillerNaumann;

heatTransferModel1  RanzMarshall;
heatTransferModel2  RanzMarshall;

dispersedPhase      both;
dragPhase           blended;

residualSlip        1e-2;
minInterfaceAlpha   1e-3;

// ************************************************************************* //
