/*--------------------------------*- C++ -*----------------------------------*\
  =========                 |
  \\      /  F ield         | OpenFOAM: The Open Source CFD Toolbox
   \\    /   O peration     | Website:  https://openfoam.org
    \\  /    A nd           | Version:  dev
     \\/     M anipulation  |
\*---------------------------------------------------------------------------*/
FoamFile
{
    format      ascii;
    class       dictionary;
    location    "system";
    object      controlDict;
}
// * * * * * * * * * * * * * * * * * * * * * * * * * * * * * * * * * * * * * //

application     interFoam;

startFrom       latestTime;

startTime       0;

stopAt          endTime;

endTime         20;

deltaT          0.0001;

writeControl    adjustableRunTime;

writeInterval   5;

purgeWrite      0;

writeFormat     binary;

writePrecision  6;

writeCompression off;

timeFormat      general;

timePrecision   6;

runTimeModifiable yes;

adjustTimeStep  yes;

maxCo           10;
maxAlphaCo      5;
maxDeltaT       0.01;

libs            ("libwaves.so");

functions
{
    surfaces
    {
        type            surfaces;
        libs            ("libsampling.so");

        writeControl    adjustableRunTime;
        writeInterval   0.01;

        startTime       10;

        surfaceFormat   vtk;
        writeFormat     binary;
        fields          (p_rgh U);

        interpolationScheme cellPoint;

        surfaces
        (
            interface
            {
                type            isoSurface;
                isoField        alpha.water;
                isoValue        0.5;
                interpolate     true;
            }
        );
    }
}


// ************************************************************************* //
