/*--------------------------------*- C++ -*----------------------------------*\
  =========                 |
  \\      /  F ield         | OpenFOAM: The Open Source CFD Toolbox
   \\    /   O peration     | Website:  https://openfoam.org
    \\  /    A nd           | Version:  dev
     \\/     M anipulation  |
\*---------------------------------------------------------------------------*/
FoamFile
{
    format      ascii;
    class       volScalarField;
    location    "0";
    object      p;
}
// * * * * * * * * * * * * * * * * * * * * * * * * * * * * * * * * * * * * * //

dimensions      [pressure];

internalField
{
    type        zonal;

    defaultValue    1 [bar];

    zones
    {
        lowPressure
        {
            type            box;

            box             (0 -1 -1) (5 1 1);

            value           0.1 [bar];
        }
    }
}

boundaryField
{
    sides
    {
        type            zeroGradient;
    }

    empty
    {
        type            empty;
    }
}

// ************************************************************************* //
