/*--------------------------------*- C++ -*----------------------------------*\
  =========                 |
  \\      /  F ield         | OpenFOAM: The Open Source CFD Toolbox
   \\    /   O peration     | Website:  https://openfoam.org
    \\  /    A nd           | Version:  dev
     \\/     M anipulation  |
\*---------------------------------------------------------------------------*/
FoamFile
{
    format      ascii;
    class       dictionary;
    location    "constant";
    object      fvModels;
}
// * * * * * * * * * * * * * * * * * * * * * * * * * * * * * * * * * * * * * //

VoFClouds
{
    type    VoFClouds;

    libs    ("libVoFClouds.so");

    phase   liquid;
    carrierPhase air;
}

VoFFilmTransfer
{
    type        VoFFilmTransfer;

    libs        ("libfilmVoFTransfer.so");

    filmPatch   film;
    phase       liquid;

    deltaFactorToFilm 0;
    alphaToFilm       0;

    transferRateCoeff 0.1;
}

// ************************************************************************* //
