/*--------------------------------*- C++ -*----------------------------------*\
  =========                 |
  \\      /  F ield         | OpenFOAM: The Open Source CFD Toolbox
   \\    /   O peration     | Website:  https://openfoam.org
    \\  /    A nd           | Version:  dev
     \\/     M anipulation  |
\*---------------------------------------------------------------------------*/
FoamFile
{
    format      ascii;
    class       dictionary;
    location    "constant";
    object      heatTransfer;
}
// * * * * * * * * * * * * * * * * * * * * * * * * * * * * * * * * * * * * * //

blending        default;

gas_dispersedIn_liquid_inThe_gas
{
    type            spherical;
}

liquid_dispersedIn_gas_inThe_gas
{
    type            RanzMarshall;
}

solid_dispersedIn_gas_inThe_gas
{
    type            Gunn;
}

gas_dispersedIn_liquid_inThe_liquid
{
    type            RanzMarshall;
}

liquid_dispersedIn_gas_inThe_liquid
{
    type            spherical;
}

solid_dispersedIn_liquid_inThe_liquid
{
    type            Gunn;
}

solid_dispersedIn_liquid_inThe_solid
{
    type            nonSpherical;
    factor          5;
}

solid_dispersedIn_gas_inThe_solid
{
    type            nonSpherical;
    factor          5;
}

// ************************************************************************* //
