/*--------------------------------*- C++ -*----------------------------------*\
  =========                 |
  \\      /  F ield         | OpenFOAM: The Open Source CFD Toolbox
   \\    /   O peration     | Website:  https://openfoam.org
    \\  /    A nd           | Version:  dev
     \\/     M anipulation  |
\*---------------------------------------------------------------------------*/
FoamFile
{
    format      ascii;
    class       dictionary;
    object      extrude2DMeshDict;
}
// * * * * * * * * * * * * * * * * * * * * * * * * * * * * * * * * * * * * * //

extrudeModel        linearDirection;

patchInfo
{}

patchType           empty;

nLayers             1;

expansionRatio      1.0;

linearDirectionCoeffs
{
    direction       (0 0 1);
    thickness       0.1;
}

wedgeCoeffs
{
    axisPt          (0 0 0);
    axis            (1 0 0);
    angle           10;
}


// ************************************************************************* //
