ELEMENTS
H C O N
END
SPECIES
H             H2            O                O2               OH
H2O           N2            CO               HCO              CO2
CH3           CH4           HO2              H2O2             CH2O     
CH3O          C2H6          C2H4             C2H5             CH2
CH            C2H           C2H2             C2H3             CH3OH    
CH2OH         CH2CO         HCCO             C2H5OH           PC2H4OH    
SC2H4OH       CH3CO         CH2CHO           CH3CHO           C3H4-A    
C3H4-P        C3H6          C4H6             NC3H7            IC3H7
C3H8          IC4H7         IC4H8            C4H7             C4H8-2    
C4H8-1        SC4H9         PC4H9            TC4H9            IC4H9   
IC4H10        C4H10         CH3COCH3         CH3COCH2         C2H5CHO       
C2H5CO        C5H9          C5H10-1          C5H10-2          IC5H12        
AC5H11        BC5H11        CC5H11           DC5H11           AC5H10   
BC5H10        CC5H10        IC5H9            NC5H12           C5H11-1  
C5H11-2       C5H11-3       NEOC5H12         NEOC5H11         C2H5O
CH3O2         C2H5O2        CH3O2H           C2H5O2H          C2H3O1-2   
CH3CO2        C2H4O1-2      C2H4O2H          O2C2H4OH
CH3CO3        CH3CO3H       C2H3CO           C2H3CHO          C3H5O    
C3H6OOH1-2    C3H6OOH1-3    C3H6OOH2-1       C3H6OOH1-2O2     C3H6OOH1-3O2  
C3H6OOH2-1O2  NC3H7O        IC3H7O           NC3H7O2H         IC3H7O2H   
NC3H7O2       IC3H7O2       C3H6O1-3         IC4H8O           IC4H8OH   
IO2C4H8OH     IC4H7O        C4H7O            C4H8OH-1         C4H8OH-2    
O2C4H8OH-1    O2C4H8OH-2    C4H8OOH1-2O2     C4H8OOH1-3O2     C4H8OOH1-4O2  
C4H8OOH2-1O2  C4H8OOH2-3O2  C4H8OOH2-4O2     TC4H8OOH-IO2     IC4H8OOH-IO2  
IC4H8OOH-TO2  C4H8OOH1-2    C4H8OOH1-3       C4H8OOH1-4       C4H8OOH2-1    
C4H8OOH2-3    C4H8OOH2-4    IC4H8O2H-I       IC4H8O2H-T       TC4H8O2H-I    
C4H8O1-2      C4H8O1-3      C4H8O1-4         C4H8O2-3         CC4H8O  
PC4H9O        SC4H9O        IC4H9O           TC4H9O           PC4H9O2H      
SC4H9O2H      IC4H9O2H      TC4H9O2H         TC4H9O2          IC4H9O2   
SC4H9O2       PC4H9O2       CH3COCH2O2       CH3COCH2O2H      CH3COCH2O     
C4H10O        C2H3-CH2O     AC5H11O2         BC5H11O2         CC5H11O2      
DC5H11O2      AC5H11O2H     BC5H11O2H        CC5H11O2H        DC5H11O2H     
AC5H11O       BC5H11O       CC5H11O          DC5H11O          AC5H10OOH-A   
AC5H10OOH-B   AC5H10OOH-C   AC5H10OOH-D      BC5H10OOH-A      BC5H10OOH-C   
BC5H10OOH-D   CC5H10OOH-A   CC5H10OOH-B      CC5H10OOH-D      DC5H10OOH-A   
DC5H10OOH-B   DC5H10OOH-C   AC5H10OOH-AO2    AC5H10OOH-BO2    AC5H10OOH-CO2 
AC5H10OOH-DO2 BC5H10OOH-AO2 BC5H10OOH-CO2    BC5H10OOH-DO2    CC5H10OOH-AO2 
CC5H10OOH-BO2 CC5H10OOH-DO2 DC5H10OOH-AO2    DC5H10OOH-BO2    DC5H10OOH-CO2 
A-AC5H10O     A-BC5H10O     A-CC5H10O        A-DC5H10O        B-CC5H10O     
B-DC5H10O     C-DC5H10O     C5H11O2-1        C5H11O2-2        C5H11O2-3     
C5H11O2H-1    C5H11O2H-2    C5H11O2H-3       C5H11O-1         C5H11O-2  
C5H11O-3      C5H10OOH1-2   C5H10OOH1-3      C5H10OOH1-4      C5H10OOH1-5   
C5H10OOH2-1   C5H10OOH2-3   C5H10OOH2-4      C5H10OOH2-5      C5H10OOH3-2   
C5H10OOH3-1   C5H10OOH1-2O2 C5H10OOH1-3O2    C5H10OOH1-4O2    C5H10OOH1-5O2 
C5H10OOH2-1O2 C5H10OOH2-3O2 C5H10OOH2-4O2    C5H10OOH2-5O2    C5H10OOH3-1O2 
C5H10OOH3-2O2 C5H10O1-2     C5H10O1-3        C5H10O1-4        C5H10O1-5     
C5H10O2-3     C5H10O2-4     NEOC5H11O2       NEOC5H11O2H      NEOC5H11O     
NEOC5H10OOH   O2NEOC5H10OOH NEO-C5H10O       C3H5-A           C3H5-S  
C3H5-T        C3H3          C3H2             C3H6O1-2         HCO3H
HCO3          HCO2          C3KET12          C3KET13          C3KET21      
NC4KET12      NC4KET13      NC4KET14         NC4KET21         NC4KET23     
NC4KET24      IC4KETII      IC4KETIT         NEOC5KET         NC5KET12     
NC5KET13      NC5KET14      NC5KET15         NC5KET21         NC5KET23     
NC5KET24      NC5KET25      NC5KET31         NC5KET32         IC5KETAA     
IC5KETAB      IC5KETAC      IC5KETAD         IC5KETCA         IC5KETCB     
IC5KETCD      IC5KETDA      IC5KETDB         IC5KETDC         O2C2H4O2H     
CH2O2HCHO     IC4H7OOH      IC3H5CHO         TC3H6OCHO        TC3H6CHO   
IC3H7CHO      IC4H7OH       IC3H6CO          IC4H6OH          IC3H5CO   
IC3H7CO       TC3H6O2CHO    TC3H6O2HCO       IC3H5O2HCHO      TC3H6OHCHO    
TC3H6OH       IC3H5OH       TC4H8CHO         O2C4H8CHO        O2HC4H8CO     
O2HC4H7CHO    C3H5OH        CH2CCH2OH        NC3H7CHO         NC3H7CO       
CH2CH2COCH3   C2H5COCH2     C2H5COCH3        CH2CHOOHCOCH3    CH3CHOOHCOCH3 
CH3CHOOCOCH3  CH3CHCOCH3    C2H3COCH3        CH3CHCO          CH2CH2CHO  
C3H6CHO-3     C3H6CHO-2     C2H5CHCO         IC3H5COCH3       IC3H5COCH2    
AC3H4COCH3    SC3H5COCH2    CH3CHOCHO        CH3CHCHO         SC3H5CHO   
SC3H5CO       IC3H6CHO      C3H6CHO-1        C2H5COC2H5       C2H5COC2H4P   
C2H5COC2H4S   C2H5COC2H3    PC2H4COC2H3      SC2H4COC2H3      IC3H6CHCHO    
IC3H6CHCO     AC3H5CHCHO    IC3H6CHCOCH3     AC3H5CHCOCH3     IC3H6CHCOCH2  
NC3H7COCH3    NC3H7COCH2    C3H6COCH3-1      C3H6COCH3-2      C3H6COCH3-3   
IC3H7COCH3    IC3H7COCH2    IC3H6COCH3       TC3H6COCH3       NC3H7COC2H5   
C3H6COC2H5-1  C3H6COC2H5-2  C3H6COC2H5-3     NC3H7COC2H4P     NC3H7COC2H4S  
IC3H7COC2H5   IC3H6COC2H5   TC3H6COC2H5      IC3H7COC2H4P     IC3H7COC2H4S  
IC3H7COC2H3   IC3H6COC2H3   TC3H6COC2H3      IC3H5COC2H5      AC3H4COC2H5   
IC3H5COC2H4P  IC3H5COC2H4S  NC4H9CHO         NC4H9CO          AC3H5CHO  
AC3H5CO       C2H3CHCHO     C4H8CHO-1        C4H8CHO-2        C4H8CHO-3     
C4H8CHO-4     NC6H14        C6H13-1          C6H13-2          C6H13-3    
C6H12-1       C6H12-2       C6H12-3          C6H11            C6H12O1-2     
C6H12O1-3     C6H12O1-4     C6H12O1-5        C6H12O2-3        C6H12O2-4     
C6H12O2-5     C6H12O3-4     C6H13O2H-1       C6H13O2H-2       C6H13O2H-3    
C6H13O2-1     C6H13O2-2     C6H13O2-3        C6H12OOH1-2      C6H12OOH1-3   
C6H12OOH1-4   C6H12OOH1-5   C6H12OOH2-1      C6H12OOH2-3      C6H12OOH2-4   
C6H12OOH2-5   C6H12OOH2-6   C6H12OOH3-1      C6H12OOH3-2      C6H12OOH3-4   
C6H12OOH3-5   C6H12OOH3-6   C6H12OOH1-2O2    C6H12OOH1-3O2    C6H12OOH1-4O2 
C6H12OOH1-5O2 C6H12OOH2-1O2 C6H12OOH2-3O2    C6H12OOH2-4O2    C6H12OOH2-5O2 
C6H12OOH2-6O2 C6H12OOH3-1O2 C6H12OOH3-2O2    C6H12OOH3-4O2    C6H12OOH3-5O2 
C6H12OOH3-6O2 NC6KET12      NC6KET13         NC6KET14         NC6KET15   
NC6KET21      NC6KET23      NC6KET24         NC6KET25         NC6KET26   
NC6KET31      NC6KET32      NC6KET34         NC6KET35         NC6KET36   
C6H13O-1      C6H13O-2      C6H13O-3         NC7H16           C7H15-1   
C7H15-2       C7H15-3       C7H15-4          C7H14-1          C7H14-2   
C7H14-3       C7H13         C7H15O2-1        C7H15O2-2        C7H15O2-3     
C7H15O2-4     C7H15O2H-1    C7H15O2H-2       C7H15O2H-3       C7H15O2H-4    
C7H15O-1      C7H15O-2      C7H15O-3         C7H15O-4         C7H14OOH1-2   
C7H14OOH1-3   C7H14OOH1-4   C7H14OOH1-5      C7H14OOH2-1      C7H14OOH2-3   
C7H14OOH2-4   C7H14OOH2-5   C7H14OOH2-6      C7H14OOH3-1      C7H14OOH3-2   
C7H14OOH3-4   C7H14OOH3-5   C7H14OOH3-6      C7H14OOH3-7      C7H14OOH4-1   
C7H14OOH4-2   C7H14OOH4-3   C7H14OOH1-2O2    C7H14OOH1-3O2    C7H14OOH1-4O2 
C7H14OOH1-5O2 C7H14OOH2-1O2 C7H14OOH2-3O2    C7H14OOH2-4O2    C7H14OOH2-5O2 
C7H14OOH2-6O2 C7H14OOH3-1O2 C7H14OOH3-2O2    C7H14OOH3-4O2    C7H14OOH3-5O2 
C7H14OOH3-6O2 C7H14OOH3-7O2 C7H14OOH4-1O2    C7H14OOH4-2O2    C7H14OOH4-3O2 
C7H14O1-2     C7H14O1-3     C7H14O1-4        C7H14O1-5        C7H14O2-3     
C7H14O2-4     C7H14O2-5     C7H14O2-6        C7H14O3-4        C7H14O3-5     
NC7KET12      NC7KET13      NC7KET14         NC7KET15         NC7KET21   
NC7KET23      NC7KET24      NC7KET25         NC7KET26         NC7KET31   
NC7KET32      NC7KET34      NC7KET35         NC7KET36         NC7KET37   
NC7KET41      NC7KET42      NC7KET43         NC5H11CHO        NC5H11CO   
C5H10CHO-1    C5H10CHO-2    C5H10CHO-3       C5H10CHO-4       C5H10CHO-5    
C4H7CHO1-4    C4H7CO1-4     C4H6CHO1-43      C4H6CHO1-44      NC4H9COCH3    
NC4H9COCH2    C4H8COCH3-1   C4H8COCH3-2      C4H8COCH3-3      C4H8COCH3-4   
END
REACTIONS      CAL/MOLE
CH3+H(+M) = CH4(+M)   2.138E+15  -0.40  0.000E+00
LOW /3.31E+30 -4.0  2.108E+03/
  TROE /0. 1.0E-15 1.0E-15 40./
  H2/2/ CO/2/ CO2/3/ H2O/5/
  CH4+H = CH3+H2     1.727E+04   3.00  8.224E+03
               REV / 6.610E+02   3.00  7.744E+03 /
 CH4+OH = CH3+H2O    1.930E+05   2.40  2.106E+03
               REV / 4.820E+02   2.90  1.486E+04 /
  CH4+O = CH3+OH     2.130E+06   2.21  6.480E+03
               REV / 3.557E+04   2.21  3.920E+03 /
C2H6+CH3 = C2H5+CH4  5.500E-01   4.00  8.280E+03
               REV / 8.610E-02   4.14  1.256E+04 /
 HCO+OH = CO+H2O     3.020E+13   0.00  0.000E+00
               REV / 8.574E+14   0.00  1.052E+05 /
  CO+OH = CO2+H      9.430E+03   2.25 -2.351E+03
               REV / 1.056E+06   2.25  1.998E+04 /
  H+O2 = O+OH        1.920E+14   0.00  1.644E+04
               REV / 1.516E+13   0.00  3.250E+02 /
  O+H2 = H+OH        5.080E+04   2.67  6.292E+03
               REV / 2.231E+04   2.67  4.197E+03 /
  O+H2O = OH+OH      1.213E+05   2.62  1.537E+04
               REV / 1.230E+04   2.62 -1.878E+03 /
  OH+H2 = H+H2O      2.160E+08   1.51  3.430E+03
               REV / 9.352E+08   1.51  1.858E+04 /
HCO+M = H+CO+M       1.860E+17  -1.00  1.700E+04
               REV / 6.467E+13   0.00 -4.420E+02 /
 H2O2+OH = H2O+HO2   2.400E+00   4.04 -2.162E+03
               REV / 4.043E-01   4.37  2.930E+04 /
 C2H4+O = CH3+HCO    1.320E+08   1.55  4.270E+02
               REV / 3.690E+09   0.72  3.202E+04 /
  C2H4+H(+M) = C2H5(+M) 1.081E+12   0.45  1.822E+03
LOW /1.112E+34 -5.0  4.448E+03/
  TROE /1.0 1.0E-15 95. 200./
 H2/2/ CO/2/ CO2/3/ H2O/5/
CH3+OH(+M) = CH3OH(+M) 5.649E+13   0.10  0.000E+00
LOW /5.748E+41  -7.4  626./
  TROE /0.025  1.E-15  8000.  3000./
 H2/2/ CO/2/ CO2/3/ H2O/16/
 C2H6+H = C2H5+H2      5.370E+02   3.50  5.200E+03
                 REV / 9.720E+02   3.50  2.732E+04 /
CH3OH+HO2 = CH2OH+H2O2 3.980E+13   0.00  1.940E+04
                 REV / 3.130E+15  -0.90  1.075E+04 /
 C2H5+O2 = C2H4+HO2    1.220E+30  -5.76  1.010E+04
                 REV / 1.259E+30  -5.63  2.231E+04 /
 C2H6+OH = C2H5+H2O    5.125E+06   2.06  8.550E+02
                 REV / 1.010E+07   2.06  2.298E+04 /
 C2H6+O = C2H5+OH      1.130E+14   0.00  7.850E+03
                 REV / 2.080E+13   0.00  1.272E+04 /
 CH3+HO2 = CH3O+OH     1.990E+13   0.00  0.000E+00
                 REV / 8.647E+14  -0.35  2.455E+04 /
 CO+HO2 = CO2+OH       1.510E+14   0.00  2.365E+04
                 REV / 3.228E+16  -0.33  8.526E+04 /
 CH3+CH3(+M) = C2H6(+M) 9.214E+16  -1.17  6.358E+02
LOW /1.135E+36 -5.246  1.705E+03/
  TROE /0.405 1120. 69.6 1.0E+15/
  H2/2/ CO/2/ CO2/3/ H2O/5/
H2O+M = H+OH+M          1.837E+27  -3.00  1.226E+05
                  REV / 2.250E+22  -2.00  0.000E+00 /
  H2/2/ H2O/12/ CO/1.9/ CO2/3.8/
HO2+M = H+O2+M          6.852E+19  -1.47  4.996E+04
                  REV / 2.000E+17  -0.80  0.000E+00 /
  H2/2/ H2O/12/ CO/1.9/ CO2/3.8/
CO2+M = CO+O+M          2.328E+19  -1.00  1.231E+05
                  REV / 2.510E+13   0.00 -4.541E+03 /
  CO+O2 = CO2+O         1.068E-15   7.13  1.332E+04
                  REV / 9.444E-15   7.13  1.954E+04 /
  HCO+H = CO+H2         7.230E+13   0.00  0.000E+00
                  REV / 4.741E+14   0.00  9.000E+04 /
  HCO+O = CO+OH         3.020E+13   0.00  0.000E+00
                  REV / 8.697E+13   0.00  8.790E+04 /
  CH2O+M = HCO+H+M      3.300E+16   0.00  8.100E+04
                  REV / 1.400E+11   1.00 -1.177E+04 /
 CH2O+OH = HCO+H2O      3.430E+09   1.18 -4.470E+02
                  REV / 2.350E+08   1.35  2.612E+04 /
 CH2O+H = HCO+H2        2.190E+08   1.77  3.001E+03
                  REV / 1.749E+07   1.77  1.767E+04 /
 CH2O+O = HCO+OH        4.160E+11   0.57  2.762E+03
                  REV / 1.459E+10   0.57  1.534E+04 /
 CH3+OH = CH2O+H2       4.000E+12   0.00  0.000E+00
                  REV / 1.200E+14   0.00  7.172E+04 /
  CH3+O = CH2O+H        1.300E+14   0.00  2.000E+03
                  REV / 1.700E+15   0.00  7.163E+04 /
 CH3+O2 = CH3O+O        4.800E+13   0.00  2.900E+04
                  REV / 3.040E+14   0.00  7.330E+02 /
CH2O+CH3 = HCO+CH4      5.540E+03   2.81  5.860E+03
                  REV / 7.290E+03   2.85  2.251E+04 /
 HCO+CH3 = CH4+CO       3.000E+11   0.50  0.000E+00
                  REV / 5.140E+13   0.50  9.047E+04 /
  CH3O(+M) = CH2O+H(+M) 1.995E+13   0.00  2.742E+04
LOW /2.344E+25 -2.7  3.060E+04/
  C2H4+M = C2H2+H2+M   9.330E+16   0.00  7.720E+04
                 REV / 4.600E+12   1.00  3.652E+04 /
  HO2+O = OH+O2        1.810E+13   0.00 -3.970E+02
                 REV / 2.811E+12   0.32  5.332E+04 /
 HCO+HO2 = CH2O+O2     1.000E+14   0.00  3.000E+03
                 REV / 3.660E+15   0.00  4.604E+04 /
 CH3O+O2 = CH2O+HO2    7.600E+10   0.00  2.700E+03
                 REV / 1.280E+11   0.00  3.217E+04 /
 CH3+HO2 = CH4+O2      3.610E+12   0.00  0.000E+00
                 REV / 5.191E+15  -0.33  5.796E+04 /
 HCO+O2 = CO+HO2       9.096E+12   0.00  4.100E+02
                 REV / 1.687E+14  -0.32  3.459E+04 /
  HO2+H = OH+OH        1.690E+14   0.00  8.740E+02
                 REV / 2.072E+12   0.32  3.848E+04 /
  HO2+H = H2+O2        8.450E+11   0.65  1.241E+03
                 REV / 4.651E+13   0.32  5.872E+04 /
 HO2+OH = H2O+O2       1.450E+16  -1.00  0.000E+00
                 REV / 2.220E+16  -0.68  7.097E+04 /
 H2O2+O2 = HO2+HO2     5.942E+17  -0.66  5.315E+04
                 REV / 4.200E+14   0.00  1.198E+04 /
DUPLICATE
OH+OH(+M) = H2O2(+M)   1.236E+14   -.37  0.000E+00
LOW /3.041E+30 -4.63 2049./
  TROE /0.47 100. 2000. 1.0E+15/
  H2/2/ H2O/12/ CO/1.9/ CO2/3.8/
 H2O2+H = H2O+OH       3.070E+13   0.00  4.217E+03
                 REV / 9.872E+12   0.00  7.495E+04 /
 CH4+HO2 = CH3+H2O2    1.120E+13   0.00  2.464E+04
                 REV / 7.430E+11   0.00  5.500E+03 /
CH2O+HO2 = HCO+H2O2    5.600E+12   0.00  1.360E+04
                 REV / 7.791E+11   0.00  1.023E+04 /
OH+M = O+H+M           3.909E+22  -2.00  1.053E+05
                 REV / 4.720E+18  -1.00  0.000E+00 /
  H2/2/ H2O/12/ CO/1.9/ CO2/3.8/
O2+M = O+O+M           6.473E+20  -1.50  1.215E+05
                 REV / 6.170E+15  -0.50  0.000E+00 /
  H2/2/ H2O/12/ CO/1.9/ CO2/3.8/
H2+M = H+H+M           4.570E+19  -1.40  1.044E+05
                 REV / 2.423E+15  -0.40 -3.040E+03 /
  H2/2/ H2O/12/ CO/1.9/ CO2/3.8/
  C2H4+M = C2H3+H+M    6.300E+18   0.00  1.087E+05
                 REV / 2.000E+17   0.00  0.000E+00 /
C2H5+C2H3 = C2H4+C2H4  3.000E+12   0.00  0.000E+00
                 REV / 4.820E+14   0.00  7.153E+04 /
 C2H2+H(+M) = C2H3(+M) 2.345E+15  -0.87  3.064E+03
LOW /2.254E+40 -7.269 6577./
  TROE /1.0 1.0E-15 675. 1.0E+15/
  H2/2/ CO/2/ CO2/3/ H2O/5/
 C2H4+H = C2H3+H2      1.500E+07   2.00  6.000E+03
                 REV / 1.750E+06   2.00  5.110E+03 /
 C2H4+OH = C2H3+H2O    2.020E+13   0.00  5.955E+03
                 REV / 1.015E+13   0.00  2.022E+04 /
 C2H4+O = C2H3+OH      1.510E+07   1.91  3.736E+03
                 REV / 4.508E+08   1.08  2.291E+03 /
  C2H2+M = C2H+H+M     1.000E+14   0.00  1.140E+05
                 REV / 1.108E+09   1.00  7.670E+02 /
 C2H2+O2 = HCO+HCO     4.000E+12   0.00  2.800E+04
                 REV / 1.000E+11   0.00  6.365E+04 /
 C2H2+H = C2H+H2       2.000E+14   0.00  1.900E+04
                 REV / 4.179E+13   0.00  1.321E+04 /
 C2H2+OH = C2H+H2O     6.000E+12   0.00  7.000E+03
                 REV / 5.428E+12   0.00  1.636E+04 /
 O+C2H2 = C2H+OH       3.200E+15  -0.60  1.700E+04
                 REV / 2.937E+14  -0.60  9.112E+02 /
 C2H2+O = CH2+CO       6.700E+13   0.00  4.000E+03
                 REV / 1.260E+13   0.00  5.467E+04 /
 C2H+O2 = HCO+CO       1.000E+13   0.00  7.000E+03
                 REV / 8.444E+12   0.00  1.384E+05 /
  C2H+O = CO+CH        5.000E+13   0.00  0.000E+00
                 REV / 3.160E+13   0.00  5.943E+04 /
 CH2+O2 = HCO+OH       1.000E+14   0.00  3.700E+03
                 REV / 4.117E+13   0.00  7.658E+04 /
  CH2+O = CH+OH        1.900E+11   0.68  2.500E+04
                 REV / 5.863E+10   0.68  2.593E+04 /
  CH2+H = CH+H2        2.700E+11   0.67  2.570E+04
                 REV / 1.897E+11   0.67  2.873E+04 /
 CH2+OH = CH+H2O       2.700E+11   0.67  2.570E+04
                 REV / 8.213E+11   0.67  4.388E+04 /
  CH+O2 = CO+OH        1.350E+11   0.67  2.570E+04
                 REV / 5.187E+11   0.67  1.856E+05 /
  CH+O2 = HCO+O        1.000E+13   0.00  0.000E+00
                 REV / 1.334E+13   0.00  7.195E+04 /
CH3OH+OH = CH2OH+H2O   6.620E+04   2.53 -9.600E+02
                 REV / 8.920E+03   2.53  2.178E+04 /
 CH3OH+H = CH3+H2O     6.450E+11   0.00  5.310E+03
                 REV / 5.850E+07   0.78  3.143E+04 /
 CH3OH+H = CH2OH+H2    4.000E+13   0.00  6.095E+03
                 REV / 1.140E+12   0.00  1.365E+04 /
CH3OH+CH3 = CH2OH+CH4  4.150E+01   3.17  7.170E+03
                 REV / 2.430E+02   2.94  1.610E+04 /
 CH3OH+O = CH2OH+OH    3.880E+05   2.50  3.080E+03
                 REV / 4.960E+03   2.50  8.781E+03 /
CH2OH+O2 = CH2O+HO2    1.000E+14   0.00  5.000E+03
                 REV / 3.260E+12   0.61  2.586E+04 /
  CH2OH+M = CH2O+H+M   1.850E+24  -2.50  3.419E+04
                 REV / 1.060E+23  -1.99  5.901E+03 /
 C2H3+O2 = C2H2+HO2    1.000E+12   0.00  0.000E+00
                 REV / 1.000E+12   0.00  1.787E+04 /
 H2O2+O = OH+HO2       9.550E+06   2.00  3.970E+03
                 REV / 2.541E+07   1.68  1.985E+04 /
 C2H2+O = HCCO+H       3.560E+04   2.70  1.391E+03
                 REV / 5.030E+02   2.70  1.279E+04 /
 C2H2+OH = CH2CO+H     3.200E+11   0.00  2.000E+02
                 REV / 3.158E+12   0.00  2.086E+04 /
 CH2CO+H = CH3+CO      1.100E+13   0.00  3.400E+03
                 REV / 2.400E+12   0.00  4.020E+04 /
 CH2CO+O = HCO+HCO     1.000E+13   0.00  2.400E+03
                 REV / 3.500E+11   0.00  3.350E+04 /
CH2CO+OH = CH2O+HCO    2.800E+13   0.00  0.000E+00
                 REV / 2.757E+13   0.00  1.850E+04 /
  CH2CO+M = CH2+CO+M   2.000E+16   0.00  6.000E+04
                 REV / 4.610E+10   0.00  0.000E+00 /
 CH2CO+O = HCCO+OH     5.000E+13   0.00  8.000E+03
                 REV / 7.150E+10   0.00  8.000E+03 /
CH2CO+OH = HCCO+H2O    7.500E+12   0.00  3.000E+03
                 REV / 1.060E+11   0.00  1.100E+04 /
 CH2CO+H = HCCO+H2     7.500E+13   0.00  8.000E+03
                 REV / 2.450E+11   0.00  8.000E+03 /
 HCCO+OH = HCO+HCO     1.000E+13   0.00  0.000E+00
                 REV / 4.820E+13   0.00  4.036E+04 /
 HCCO+H = CH2+CO       1.100E+14   0.00  0.000E+00
                 REV / 6.660E+13   0.00  3.926E+04 /
 HCCO+O = HCO+CO       3.400E+13   0.00  2.000E+03
                 REV / 8.330E+13   0.00  1.283E+05 /
 C2H6+O2 = C2H5+HO2    4.000E+13   0.00  5.090E+04
                 REV / 3.000E+11   0.00  0.000E+00 /
C2H6+HO2 = C2H5+H2O2   1.700E+13   0.00  2.046E+04
                 REV / 2.500E+11   0.00  6.500E+03 /
C2H6+C2H4 = C2H5+C2H5  5.000E+11   0.00  6.000E+04
                 REV / 5.000E+11   0.00  0.000E+00 /
CH3+C2H3 = CH4+C2H2    7.940E+11   0.00  0.000E+00
                 REV / 7.557E+13   0.00  6.605E+04 /
CH3+C2H5 = CH4+C2H4    7.940E+11   0.00  0.000E+00
                 REV / 8.075E+12   0.00  6.689E+04 /
CH3OH+CH2O = CH3O+CH3O 1.533E+12   0.00  7.957E+04
                 REV / 3.000E+13   0.00  0.000E+00 /
CH2O+CH3O = CH3OH+HCO  1.150E+11   0.00  1.280E+03
                 REV / 3.020E+11   0.00  1.816E+04 /
CH4+CH3O = CH3+CH3OH   1.570E+11   0.00  8.842E+03
                 REV / 1.046E+09   0.00  5.000E+04 /
C2H6+CH3O = C2H5+CH3OH 3.000E+11   0.00  7.000E+03
                 REV / 1.714E+10   0.00  5.000E+04 /
 C2H3+H = C2H2+H2      2.000E+13   0.00  2.500E+03
                 REV / 1.331E+13   0.00  6.808E+04 /
CH3O+CH3OH = CH2OH+CH3OH 1.510E+12   0.00  7.000E+03
                   REV / 2.190E+05   1.66  1.085E+04 /
CH3OH+OH = CH3O+H2O     1.230E+13   0.00  3.250E+03
                  REV / 3.168E+13   0.00  2.146E+04 /
 C2H5+H = CH3+CH3       3.160E+13   0.00  0.000E+00
                  REV / 5.000E+10   0.00  7.400E+03 /
 C2H3+O2 = CH2O+HCO     4.000E+12   0.00 -2.500E+02
                  REV / 4.000E+12   0.00  8.630E+04 /
 C2H6(+M) = C2H5+H(+M)  8.851E+20  -1.22  1.022E+05
LOW /6.918E+42 -6.431 107200./
  SRI /47.61 1.6182E+04 3.371E+03/
 C2H5OH+M = CH2OH+CH3+M 5.243E+19  -1.19  8.524E+04
                  REV / 1.200E+13   0.00  0.000E+00 /
 C2H5OH+M = C2H5+OH+M   2.906E+18  -0.56  9.393E+04
                  REV / 3.750E+13   0.00  0.000E+00 /
C2H5OH+O2 = PC2H4OH+HO2 2.050E+13   0.00  5.131E+05
                  REV / 3.557E+08   0.32  4.592E+05 /
C2H5OH+O2 = SC2H4OH+HO2 1.550E+13   0.00  4.377E+04
                  REV / 1.115E+09   0.63 -6.882E+03 /
C2H5OH+OH = PC2H4OH+H2O 7.550E+09   0.97  1.586E+03
                  REV / 3.122E+07   0.96  2.032E+04 /
C2H5OH+OH = SC2H4OH+H2O 6.780E+07   1.61  3.500E+01
                  REV / 1.163E+06   1.91  2.202E+04 /
C2H5OH+H = PC2H4OH+H2   9.160E+06   2.00  7.700E+03
                  REV / 8.749E+03   1.99  1.128E+04 /
C2H5OH+H = SC2H4OH+H2   4.430E+06   2.00  5.000E+03
                  REV / 1.755E+04   2.30  1.183E+04 /
C2H5OH+H = C2H5+H2O     8.280E+05   2.10  4.868E+03
                  REV / 8.724E+05   1.66  3.354E+04 /
C2H5OH+O = PC2H4OH+OH   2.250E+13   0.00  7.700E+03
                  REV / 9.439E+09  -0.01  9.184E+03 /
C2H5OH+O = SC2H4OH+OH   3.070E+13   0.00  5.200E+03
                  REV / 5.341E+10   0.30  9.935E+03 /
C2H5OH+CH3 = PC2H4OH+CH4   3.190E+01   3.17  7.172E+03
                     REV / 7.960E-01   3.16  1.123E+04 /
C2H5OH+CH3 = SC2H4OH+CH4   1.740E+00   3.46  5.480E+03
                     REV / 1.800E-01   3.76  1.279E+04 /
C2H5OH+C2H5 = PC2H4OH+C2H6 5.000E+10   0.00  1.340E+04
                     REV / 6.995E+10   0.00  2.699E+04 /
C2H5OH+C2H5 = SC2H4OH+C2H6 5.000E+10   0.00  1.040E+04
                     REV / 6.995E+10   0.00  2.399E+00 /
C2H5OH+HO2 = PC2H4OH+H2O2  8.400E+12   0.00  2.043E+04
                     REV / 2.062E+11  -0.34  7.701E+03 /
C2H5OH+HO2 = SC2H4OH+H2O2  5.880E+13   0.00  1.770E+04
                     REV / 5.986E+12  -0.02  8.222E+03 /
C2H5OH+C2H3 = PC2H4OH+C2H4 5.000E+11   0.00  1.040E+04
                     REV / 2.113E+14   0.00  7.575E+04 /
C2H5OH+C2H3 = SC2H4OH+C2H4 3.000E+11   0.00  5.200E+03
                     REV / 1.268E+14   0.00  7.055E+04 /
 PC2H4OH = C2H4+OH         3.230E+14  -0.24  3.366E+04
                     REV / 1.630E+12   0.00 -6.900E+02 /
 SC2H4OH+M = CH3CHO+H+M    2.500E+14   0.00  3.440E+04
                     REV / 2.042E+13   0.37  1.013E+04 /
C2H4+CH3 = C2H3+CH4        6.620E+00   3.70  9.500E+03
                     REV / 1.440E+00   4.02  5.472E+03 /
  CH3CO+M = CH3+CO+M       1.800E+16   0.00  1.440E+04
                     REV / 1.600E+11   0.00  5.970E+03 /
 CH3CHO = CH3+HCO          7.000E+15   0.00  8.177E+04
                     REV / 3.800E+09   1.00  0.000E+00 /
CH3CHO+O2 = CH3CO+HO2      2.000E+13   0.50  4.220E+04
                     REV / 1.000E+07   0.50  4.000E+03 /
CH3CHO+OH = CH3CO+H2O      1.000E+13   0.00  0.000E+00
                     REV / 1.900E+13   0.00  3.662E+04 /
CH3CHO+H = CH3CO+H2        4.000E+13   0.00  4.200E+03
                     REV / 1.760E+13   0.00  2.366E+04 /
CH3CHO+O = CH3CO+OH        5.000E+12   0.00  1.790E+03
                     REV / 1.000E+12   0.00  1.916E+04 /
CH3CHO+HO2 = CH3CO+H2O2    1.700E+12   0.00  1.070E+04
                     REV / 1.000E+12   0.00  1.410E+04 /
CH3CHO+CH3 = CH4+CH2CHO    5.000E+11   0.00  8.000E+03
                     REV / 6.000E+12   0.00  2.800E+04 /
 C3H5-S = C2H2+CH3         2.163E+40  -8.31  4.311E+04
                     REV / 1.610E+40  -8.58  2.033E+04 /
C2H2+CH3 = C3H4-P+H        2.730E+18  -1.96  2.059E+04
                     REV / 1.248E+18  -1.57  8.982E+03 /
 C3H5-A = C2H2+CH3         4.457E+46  -9.49  8.129E+04
                     REV / 2.610E+46  -9.82  3.695E+04 /
  C3H6 = C2H3+CH3          6.250E+15   0.00  8.580E+04
                     REV / 1.000E+10   1.00  0.000E+00 /
C2H2+CH3 = C3H4-A+H        6.740E+19  -2.08  3.159E+04
                     REV / 1.149E+16  -0.70  1.579E+04 /
IC4H8+C3H5-T = IC4H7+C3H6  7.940E+11   0.00  2.050E+04
                     REV / 5.592E+20  -1.27  8.017E+04 /
IC4H8+C3H5-S = IC4H7+C3H6  7.940E+11   0.00  2.050E+04
                     REV / 5.592E+20  -1.27  8.217E+04 /
  C3H6 = C3H5-A+H          1.000E+15   0.00  8.804E+04
                     REV / 1.190E+05   2.33 -5.785E+03 /
 C3H6+O = C2H4+CH2O        6.800E+04   2.56 -1.130E+03
                     REV / 6.640E+04   2.56  8.054E+04 /
 C3H6+O = C2H5+HCO         6.800E+04   2.56 -1.130E+03
                     REV / 1.360E+04   2.56  2.879E+04 /
 O+C3H6 = CH3+CH3CO        6.800E+04   2.56 -1.130E+03
                     REV / 1.035E+04   2.56  3.664E+04 /
  C3H6 = C3H5-S+H          3.333E+14   0.00  8.804E+04
                     REV / 3.122E+04   2.27 -2.735E+04 /
C3H6+HO2 = C3H5-A+H2O2     1.500E+11   0.00  1.419E+04
                     REV / 5.867E+05   1.33  9.759E+03 /
C3H6+HO2 = C3H5-S+H2O2     7.500E+09   0.00  1.257E+04
                     REV / 2.308E+04   1.27 -1.342E+04 /
C3H6+HO2 = C3H5-T+H2O2     3.000E+09   0.00  9.930E+03
                     REV / 9.234E+03   1.27 -1.406E+04 /
 C3H6+OH = C3H5-A+H2O      1.105E+13   0.00  2.319E+03
                     REV / 1.074E+08   1.33  3.109E+04 /
 C3H6+OH = C3H5-S+H2O      1.012E+13   0.00  5.960E+03
                     REV / 7.740E+07   1.27  1.317E+04 /
  C4H6 = C2H3+C2H3         4.027E+19  -1.00  9.815E+04
                     REV / 1.260E+13   0.00  0.000E+00 /
 C4H6+OH = C2H5+CH2CO      1.000E+12   0.00  0.000E+00
                     REV / 3.730E+12   0.00  3.002E+04 /
 C4H6+OH = CH2O+C3H5-A     1.000E+12   0.00  0.000E+00
                     REV / 3.501E+06   0.00  7.106E+04 /
 C4H6+OH = C2H3+CH3CHO     1.000E+12   0.00  0.000E+00
                     REV / 5.437E+11   0.00  1.855E+04 /
 C4H6+O = C2H4+CH2CO       1.000E+12   0.00  0.000E+00
                     REV / 6.377E+11   0.00  9.434E+04 /
 C4H6+O = CH2O+C3H4-A      1.000E+12   0.00  0.000E+00
                     REV / 1.075E+12   0.00  7.905E+04 /
 C2H4+O2 = C2H3+HO2        4.000E+13   0.00  6.150E+04
                     REV / 1.000E+12   0.00  0.000E+00 /
C2H4+HO2 = C2H3+H2O2       1.130E+13   0.00  3.043E+04
                     REV / 2.000E+10   0.00  8.000E+03 /
  NC3H7 = CH3+C2H4         9.468E+13  -0.55  2.900E+04
                     REV / 1.700E+11   0.00  7.800E+03 /
  NC3H7 = H+C3H6           4.268E+15  -0.64  3.722E+04
                     REV / 1.600E+13   0.00  2.900E+03 /
NC3H7+O2 = C3H6+HO2        2.000E+12   0.00  5.000E+03
                     REV / 2.000E+11   0.00  1.750E+04 /
C2H4+CH3O = C2H3+CH3OH     1.200E+11   0.00  6.750E+03
                     REV / 1.000E+10   0.00  9.000E+03 /
 C3H6+OH = C3H5-T+H2O      5.060E+12   0.00  5.960E+03
                     REV / 3.870E+07   1.27  1.517E+04 /
 C3H6+OH = C2H5+CH2O       1.000E+12   0.00  0.000E+00
                     REV / 1.140E+13   0.00  1.735E+04 /
 OH+C3H6 = CH3+CH3CHO      3.500E+11   0.00  0.000E+00
                     REV / 2.765E+11   0.00  2.040E+04 /
 C3H6+OH = C2H5CHO+H       1.000E+10   0.00  0.000E+00
                     REV / 1.000E+00   0.00  0.000E+00 /
 C3H6+H = C3H5-A+H2        5.000E+12   0.00  1.100E+03
                     REV / 1.122E+07   1.33  1.471E+04 /
 C3H6+O2 = C3H5-S+HO2      2.000E+13   0.00  4.756E+04
                     REV / 9.466E+06   1.27 -1.613E+04 /
  IC3H7 = H+C3H6           1.055E+19  -1.57  3.998E+04
                     REV / 1.600E+13   0.00  1.200E+03 /
  IC3H7 = CH3+C2H4         2.904E+17  -1.49  3.301E+04
                     REV / 2.110E+11   0.00  7.353E+03 /
IC3H7+O2 = C3H6+HO2        2.000E+12   0.00  5.000E+03
                     REV / 2.000E+11   0.00  1.750E+04 /
 C3H8(+M) = CH3+C2H5(+M)   7.900E+22  -1.80  8.863E+04
LOW /2.680E+17 0.0 56198./
 C3H8+O2 = IC3H7+HO2       4.000E+13   0.00  4.750E+04
                     REV / 2.080E+12   0.00  0.000E+00 /
 C3H8+O2 = NC3H7+HO2       4.000E+13   0.00  4.750E+04
                     REV / 2.080E+12   0.00  0.000E+00 /
 H+C3H8 = H2+IC3H7         8.775E+06   2.00  5.000E+03
                     REV / 7.683E+12   0.00  1.587E+04 /
 H+C3H8 = H2+NC3H7         5.628E+07   2.00  7.700E+03
                     REV / 9.120E+12   0.00  1.446E+04 /
 C3H8+O = IC3H7+OH         2.810E+13   0.00  5.200E+03
                     REV / 1.870E+12   0.00  9.607E+03 /
 C3H8+O = NC3H7+OH         1.130E+14   0.00  7.850E+03
                     REV / 7.530E+12   0.00  1.226E+04 /
 C3H8+OH = NC3H7+H2O       1.054E+10   0.97  1.586E+03
                     REV / 6.931E+09   0.97  2.325E+04 /
 C3H8+OH = IC3H7+H2O       4.670E+07   1.61 -3.500E+01
                     REV / 3.071E+07   1.61  2.163E+04 /
C3H8+HO2 = IC3H7+H2O2      5.600E+12   0.00  1.770E+04
                     REV / 4.160E+11   0.00  7.426E+03 /
C3H8+HO2 = NC3H7+H2O2      1.680E+13   0.00  2.043E+04
                     REV / 2.330E+12   0.00  9.826E+03 /
CH3+C3H8 = CH4+IC3H7       3.980E+11   0.00  9.500E+03
                     REV / 1.585E+12   0.00  1.648E+04 /
CH3+C3H8 = CH4+NC3H7       1.290E+12   0.00  1.160E+04
                     REV / 5.129E+12   0.00  1.858E+04 /
IC3H7+C3H8 = C3H8+NC3H7    3.000E+10   0.00  1.290E+04
                     REV / 3.000E+10   0.00  1.290E+04 /
C2H3+C3H8 = C2H4+IC3H7     1.000E+11   0.00  1.040E+04
                     REV / 1.310E+11   0.00  1.780E+04 /
C2H3+C3H8 = C2H4+NC3H7     1.000E+11   0.00  1.040E+04
                     REV / 1.310E+11   0.00  1.780E+04 /
C2H5+C3H8 = C2H6+IC3H7     1.000E+11   0.00  1.040E+04
                     REV / 3.630E+10   0.00  9.934E+03 /
C2H5+C3H8 = C2H6+NC3H7     1.000E+11   0.00  1.040E+04
                     REV / 3.630E+10   0.00  9.934E+03 /
C3H8+C3H5-A = IC3H7+C3H6   2.000E+11   0.00  1.610E+04