/*--------------------------------*- C++ -*----------------------------------*\
  =========                 |
  \\      /  F ield         | OpenFOAM: The Open Source CFD Toolbox
   \\    /   O peration     | Website:  https://openfoam.org
    \\  /    A nd           | Version:  dev
     \\/     M anipulation  |
\*---------------------------------------------------------------------------*/
FoamFile
{
    version     2.0;
    format      ascii;
    class       dictionary;
    location    "constant";
    object      SurfaceFilmProperties;
}
// * * * * * * * * * * * * * * * * * * * * * * * * * * * * * * * * * * * * * //

surfaceFilmModel kinematicSingleLayer;

regionName      wallFilmRegion;

thermophysicalProperties
{
    type        constant;

    specie      water;
    rho0        1000;
    mu0         1e-3;
    sigma0      0.07;
}

momentumTransport
{
    model       laminar;
    Cf          0.001;
}

forces
{
    thermocapillary;

    distributionContactAngle
    {
        Ccf             1;

        distribution
        {
            type            normal;
            normalDistribution
            {
                minValue        50;
                maxValue        100;
                expectation     75;
                variance        100;
            }
        }
    }
}


// ************************************************************************* //
