/*--------------------------------*- C++ -*----------------------------------*\
| =========                 |                                                 |
| \\      /  F ield         | OpenFOAM: The Open Source CFD Toolbox           |
|  \\    /   O peration     | Version:  dev                                   |
|   \\  /    A nd           | Website:  https://openfoam.org                  |
|    \\/     M anipulation  |                                                 |
\*---------------------------------------------------------------------------*/
FoamFile
{
    version     2.0;
    format      ascii;
    class       dictionary;
    location    "system";
    object      fvSolution;
}
// * * * * * * * * * * * * * * * * * * * * * * * * * * * * * * * * * * * * * //

solvers
{
    rho
    {
        solver          PCG;
        preconditioner  DIC;
        tolerance       1e-05;
        relTol          0.1;
    }

    rhoFinal
    {
        $rho;
        tolerance       1e-05;
        relTol          0;
    }

    "(U|k|epsilon)"
    {
        solver          smoothSolver;
        smoother        symGaussSeidel;
        tolerance       1e-06;
        relTol          0.1;
    }

    "(U|k|epsilon)Final"
    {
        $U;
        tolerance       1e-06;
        relTol          0;
    }

    p_rgh
    {
        solver          GAMG;
        tolerance       0;
        relTol          0.1;
        smoother        GaussSeidel;
    }

    p_rghFinal
    {
        $p_rgh;
        tolerance       1e-06;
        relTol          0;
    }

    "(Yi|O2|N2|H2O)"
    {
        solver          PBiCGStab;
        preconditioner  DILU;
        tolerance       1e-6;
        relTol          0;
    }

    h
    {
        $Yi;
        relTol          0.1;
    }

    hFinal
    {
        $Yi;
    }
}

PIMPLE
{
    transonic       no;
    nOuterCorrectors 1;
    nCorrectors     2;
    nNonOrthogonalCorrectors 0;
    momentumPredictor yes;
}

relaxationFactors
{
    equations
    {
        ".*Final"       1;
    }
}


// ************************************************************************* //
