/*--------------------------------*- C++ -*----------------------------------*\
  =========                 |
  \\      /  F ield         | OpenFOAM: The Open Source CFD Toolbox
   \\    /   O peration     | Website:  https://openfoam.org
    \\  /    A nd           | Version:  dev
     \\/     M anipulation  |
\*---------------------------------------------------------------------------*/
FoamFile
{
    format      ascii;
    class       dictionary;
    location    "constant";
    object      engineGeometry;
}
// * * * * * * * * * * * * * * * * * * * * * * * * * * * * * * * * * * * * * //

engineMesh      layered;

conRodLength    conRodLength [0 1 0 0 0 0 0] 0.147;

bore            bore [0 1 0 0 0 0 0] 0.092;

stroke          stroke [0 1 0 0 0 0 0] 0.08423;

clearance       clearance [0 1 0 0 0 0 0] 0.00115;

rpm             rpm [0 0 -1 0 0 0 0] 1500;


// ************************************************************************* //
