/*--------------------------------*- C++ -*----------------------------------*\
  =========                 |
  \\      /  F ield         | OpenFOAM: The Open Source CFD Toolbox
   \\    /   O peration     | Website:  https://openfoam.org
    \\  /    A nd           | Version:  dev
     \\/     M anipulation  |
\*---------------------------------------------------------------------------*/
FoamFile
{
    version     2.0;
    format      ascii;
    class       dictionary;
    object      blockMeshDict;
}
// * * * * * * * * * * * * * * * * * * * * * * * * * * * * * * * * * * * * * //

convertToMeters 1;

vertices
(
    ( -0.3 -0.3 -0.15)
    (  0.3 -0.3 -0.15)
    (  0.3  0.3 -0.15)
    ( -0.3  0.3 -0.15)
    ( -0.3 -0.3  1.4)
    (  0.3 -0.3  1.4)
    (  0.3  0.3  1.4)
    ( -0.3  0.3  1.4)
);

blocks
(
    hex (0 1 2 3 4 5 6 7) (50 50 100) simpleGrading (1 1 1)
);

edges
(
);

boundary
(
    allBoundary
    {
        type patch;
        faces
        (
            (3 7 6 2)
            (0 4 7 3)
            (2 6 5 1)
            (1 5 4 0)
            (0 3 2 1)
            (4 5 6 7)
        );
    }
);

// ************************************************************************* //
