/*--------------------------------*- C++ -*----------------------------------*\
  =========                 |
  \\      /  F ield         | OpenFOAM: The Open Source CFD Toolbox
   \\    /   O peration     | Website:  https://openfoam.org
    \\  /    A nd           | Version:  dev
     \\/     M anipulation  |
\*---------------------------------------------------------------------------*/
FoamFile
{
    version     2.0;
    format      ascii;
    class       dictionary;
    location    "system";
    object      fvSolution;
}
// * * * * * * * * * * * * * * * * * * * * * * * * * * * * * * * * * * * * * //

solvers
{
    "alpha.water.*"
    {
        nAlphaCorr          1;
        nAlphaSubCycles     2;
        cAlpha              1;
    }

    p_rgh
    {
        solver          GAMG;
        tolerance       1e-6;
        relTol          0.02;
        smoother        GaussSeidel;
    }

    "pcorr.*"
    {
        $p_rgh;
        tolerance       0.1;
        relTol          0;
    }

    p_rghFinal
    {
        $p_rgh;
        relTol          0;
    }

    ".*(rho|rhoFinal)"
    {
        solver          diagonal;
    }

    "(U|T|k|epsilon).*"
    {
        solver          smoothSolver;
        smoother        symGaussSeidel;
        tolerance       1e-6;
        relTol          0;
        nSweeps         1;
    }
}

PIMPLE
{
    momentumPredictor   yes;
    correctPhi          yes;
    nOuterCorrectors    2;
    nCorrectors         1;
    nNonOrthogonalCorrectors 0;
}

relaxationFactors
{
    equations
    {
        "U.*"           1;
        "k.*"           1;
        "epsilon.*"     1;
        "T.*"           1;
    }
}


// ************************************************************************* //
