/*--------------------------------*- C++ -*----------------------------------*\
  =========                 |
  \\      /  F ield         | OpenFOAM: The Open Source CFD Toolbox
   \\    /   O peration     | Website:  https://openfoam.org
    \\  /    A nd           | Version:  dev
     \\/     M anipulation  |
\*---------------------------------------------------------------------------*/
FoamFile
{
    version         2.0;
    format          ascii;
    class           volScalarField;
    object          C3H8;
}
// * * * * * * * * * * * * * * * * * * * * * * * * * * * * * * * * * * * * * //

dimensions      [0 0 0 0 0 0 0];

internalField   uniform 0;

boundaryField
{
    top
    {
        type            inletOutlet;
        inletValue      $internalField;
        value           $internalField;
    }
    ground
    {
        type            zeroGradient;
        value           $internalField;
    }
    sides
    {
        type            inletOutlet;
        inletValue      $internalField;
        value           $internalField;
    }
    burner
    {
        type            totalFlowRateAdvectiveDiffusive;
        value           uniform 1.0;
    }
    "(region0_to.*)"
    {
        type            totalFlowRateAdvectiveDiffusive;
        value           $internalField;
    }
}


// ************************************************************************* //
