/*--------------------------------*- C++ -*----------------------------------*\
| =========                 |                                                 |
| \\      /  F ield         | OpenFOAM: The Open Source CFD Toolbox           |
|  \\    /   O peration     | Version:  dev                                   |
|   \\  /    A nd           | Website:  https://openfoam.org                  |
|    \\/     M anipulation  |                                                 |
\*---------------------------------------------------------------------------*/
FoamFile
{
    version     2.0;
    format      ascii;
    class       volScalarField;
    location    "0";
    object      T;
}
// * * * * * * * * * * * * * * * * * * * * * * * * * * * * * * * * * * * * * //

dimensions      [0 0 0 1 0 0 0];

internalField   uniform 298.15;

boundaryField
{
    ground
    {
        type            zeroGradient;
    }

    top
    {
        type            inletOutlet;
        inletValue      $internalField;
        value           $internalField;
    }

    burner
    {
        type            fixedValue;
        value           $internalField;
    }

    sides
    {
        type            inletOutlet;
        inletValue      $internalField;
        value           $internalField;
    }

    "(region0_to.*)"
    {
        type            compressible::turbulentTemperatureRadCoupledMixed;
        Tnbr            T;
        kappaMethod     fluidThermo;
        qrNbr           none;
        qr              qr;
        value           $internalField;
    }
}


// ************************************************************************* //
