/*--------------------------------*- C++ -*----------------------------------*\
  =========                 |
  \\      /  F ield         | OpenFOAM: The Open Source CFD Toolbox
   \\    /   O peration     | Website:  https://openfoam.org
    \\  /    A nd           | Version:  dev
     \\/     M anipulation  |
\*---------------------------------------------------------------------------*/
FoamFile
{
    format      ascii;
    class       volScalarField;
    location    "0";
    object      omega;
}
// * * * * * * * * * * * * * * * * * * * * * * * * * * * * * * * * * * * * * //

omegaInitial 1;

dimensions      [turbulentOmega];

internalField   uniform $omegaInitial;

boundaryField
{
    inlet
    {
        type            turbulentOmega;
        mixingLength    0.00575;
        value           uniform $omegaInitial;
    }

    outlet
    {
        type            inletOutlet;
        inletValue      uniform $omegaInitial;
    }

    wall
    {
        type            omegaWallFunction;
        value           uniform $omegaInitial;
    }

    #includeEtc "caseDicts/setConstraintTypes"
}

// ************************************************************************* //
