/*--------------------------------*- C++ -*----------------------------------*\
  =========                 |
  \\      /  F ield         | OpenFOAM: The Open Source CFD Toolbox
   \\    /   O peration     | Website:  https://openfoam.org
    \\  /    A nd           | Version:  dev
     \\/     M anipulation  |
\*---------------------------------------------------------------------------*/
FoamFile
{
    format      ascii;
    class       volScalarField;
    location    "0";
    object      T;
}
// * * * * * * * * * * * * * * * * * * * * * * * * * * * * * * * * * * * * * //

dimensions      [temperature];

internalField   uniform 265;

boundaryField
{
    //- Set patchGroups for constraint patches
    #includeEtc "caseDicts/setConstraintTypes"

    wall
    {
        type            fixedValue;
        value           uniform 265;
    }

    twoFridgeFreezers_seal_0
    {
        type            fixedValue;
        value           uniform 303;
    }

    twoFridgeFreezers_herring_1
    {
        $twoFridgeFreezers_seal_0;
    }
}

// ************************************************************************* //
