/*--------------------------------*- C++ -*----------------------------------*\
  =========                 |
  \\      /  F ield         | OpenFOAM: The Open Source CFD Toolbox
   \\    /   O peration     | Website:  https://openfoam.org
    \\  /    A nd           | Version:  dev
     \\/     M anipulation  |
\*---------------------------------------------------------------------------*/
FoamFile
{
    format      ascii;
    class       dictionary;
    location    "system";
    object      controlDict;
}
// * * * * * * * * * * * * * * * * * * * * * * * * * * * * * * * * * * * * * //

application     foamRun;

solver          fluid;

startFrom       startTime;

startTime       0;

stopAt          endTime;

endTime         3000;

deltaT          1;

writeControl    timeStep;

writeInterval   100;

purgeWrite      0;

writeFormat     binary;

writePrecision  6;

writeCompression off;

timeFormat      general;

timePrecision   6;

runTimeModifiable true;

functions
{
    age
    {
        libs            ("libfieldFunctionObjects.so");
        type            age;

        diffusion       on;

        writeControl    writeTime;
        executeControl  writeTime;
    }

    comfort
    {
        libs            ("libfieldFunctionObjects.so");
        type            comfort;

        clothing        0.5;
        metabolicRate   1.2;
        extWork         0;
        relHumidity     60;

        writeControl    writeTime;
        executeControl  writeTime;
    }
}

// ************************************************************************* //
