/*--------------------------------*- C++ -*----------------------------------*\
| =========                 |                                                 |
| \\      /  F ield         | OpenFOAM: The Open Source CFD Toolbox           |
|  \\    /   O peration     | Version:  dev                                   |
|   \\  /    A nd           | Website:  https://openfoam.org                  |
|    \\/     M anipulation  |                                                 |
\*---------------------------------------------------------------------------*/
FoamFile
{
    version     2.0;
    format      ascii;
    class       dictionary;
    location    "system";
    object      controlDict;
}
// * * * * * * * * * * * * * * * * * * * * * * * * * * * * * * * * * * * * * //

application     chemFoam;

startFrom       startTime;

startTime       0;

stopAt          endTime;

endTime         0.01;

deltaT          1e-07;

maxDeltaT       1e-05;

adjustTimeStep  on;

writeControl    adjustableRunTime;

writeInterval   5e-4;

purgeWrite      0;

writeFormat     ascii;

writeCompression off;

timeFormat      general;

timePrecision   6;

runTimeModifiable yes;

DebugSwitches
{
    SolverPerformance   0;
}

// ************************************************************************* //
