/*--------------------------------*- C++ -*----------------------------------*\
  =========                 |
  \\      /  F ield         | OpenFOAM: The Open Source CFD Toolbox
   \\    /   O peration     | Website:  https://openfoam.org
    \\  /    A nd           | Version:  dev
     \\/     M anipulation  |
\*---------------------------------------------------------------------------*/
FoamFile
{
    version     2.0;
    format      ascii;
    class       volScalarField;
    location    "0/shell";
    object      epsilon;
}
// * * * * * * * * * * * * * * * * * * * * * * * * * * * * * * * * * * * * * //

dimensions      [ 0 2 -3 0 0 0 0 ];

internalField   uniform 0.0064879;

boundaryField
{
    #includeEtc "caseDicts/setConstraintTypes"

    lower
    {
        type            inletOutlet;
        value           $internalField;
        inletValue      $internalField;
    }
    upper
    {
        type            turbulentMixingLengthDissipationRateInlet;
        mixingLength    0.008;
        value           $internalField;
    }
    wall
    {
        type            epsilonWallFunction;
        value           $internalField;
    }
}

// ************************************************************************* //
