/*--------------------------------*- C++ -*----------------------------------*\
| =========                 |                                                 |
| \\      /  F ield         | OpenFOAM: The Open Source CFD Toolbox           |
|  \\    /   O peration     | Version:  dev                                   |
|   \\  /    A nd           | Website:  https://openfoam.org                  |
|    \\/     M anipulation  |                                                 |
\*---------------------------------------------------------------------------*/
FoamFile
{
    version     2.0;
    format      ascii;
    class       dictionary;
    object      fvSolution;
}
// * * * * * * * * * * * * * * * * * * * * * * * * * * * * * * * * * * * * * //

solvers
{
    h
    {
        solver          PCG;
        preconditioner  DIC;
        tolerance       1e-10;
        relTol          0.01;
    }

    hFinal
    {
        $h;
        tolerance       1e-10;
        relTol          0;
    }

    hU
    {
        solver          smoothSolver;
        smoother        GaussSeidel;
        tolerance       1e-10;
        relTol          0.1;
    }

    hUFinal
    {
        $hU;
        tolerance       1e-10;
        relTol          0;
    }
}

PIMPLE
{
    nOuterCorrectors 3;
    nCorrectors      1;
    nNonOrthogonalCorrectors 0;

    momentumPredictor yes;
}

// ************************************************************************* //
