/*--------------------------------*- C++ -*----------------------------------*\
| =========                 |                                                 |
| \\      /  F ield         | OpenFOAM: The Open Source CFD Toolbox           |
|  \\    /   O peration     | Version:  dev                                   |
|   \\  /    A nd           | Web:      www.OpenFOAM.org                      |
|    \\/     M anipulation  |                                                 |
\*---------------------------------------------------------------------------*/
FoamFile
{
    version     2.0;
    format      ascii;
    class       volScalarField;
    location    "0";
    object      epsilon;
}
// * * * * * * * * * * * * * * * * * * * * * * * * * * * * * * * * * * * * * //

dimensions      [0 2 -3 0 0 0 0];

#include        "include/initialConditions"

internalField   uniform $turbulentEpsilon;

boundaryField
{
    #include "include/ABLConditions"

    terrain
    {
        type            epsilonWallFunction;
        Cmu             0.09;
        kappa           0.4;
        E               9.8;
        value           $internalField;
    }

    outlet
    {
        type            inletOutlet;
        inletValue      uniform $turbulentEpsilon;
        value           $internalField;
    }

    inlet
    {
        type            atmBoundaryLayerInletEpsilon;
        Uref            $Uref;
        Zref            $Zref;
        z               $zDirection;
        z0              $z0;
        value           $internalField;
        zGround         $zGround;
    }

    ground
    {
        type            zeroGradient;
    }

    #include "include/sideAndTopPatches"
}


// ************************************************************************* //
