/*--------------------------------*- C++ -*----------------------------------*\
| =========                 |                                                 |
| \\      /  F ield         | OpenFOAM: The Open Source CFD Toolbox           |
|  \\    /   O peration     | Version:  dev                                   |
|   \\  /    A nd           | Web:      www.OpenFOAM.org                      |
|    \\/     M anipulation  |                                                 |
\*---------------------------------------------------------------------------*/

FoamFile
{
    version         2.0;
    format          ascii;

    root            "";
    case            "";
    instance        "";
    local           "";

    class           dictionary;
    object          extrude2DMeshDict;
}

// * * * * * * * * * * * * * * * * * * * * * * * * * * * * * * * * * * * * * //

extrudeModel        linearDirection;
//extrudeModel        wedge;

patchType           empty;
//patchType           wedge;

nLayers             1;

expansionRatio      1.0;

linearDirectionCoeffs
{
    direction       (0 0 1);
    thickness       0.1;
}

wedgeCoeffs
{
    axisPt      (0 0 0);
    axis        (1 0 0);
    angle       10;
}
