/*--------------------------------*- C++ -*----------------------------------*\
  =========                 |
  \\      /  F ield         | OpenFOAM: The Open Source CFD Toolbox
   \\    /   O peration     | Website:  https://openfoam.org
    \\  /    A nd           | Version:  dev
     \\/     M anipulation  |
\*---------------------------------------------------------------------------*/
FoamFile
{
    format      ascii;
    class       volScalarField;
    location    "0";
    object      omega;
}
// * * * * * * * * * * * * * * * * * * * * * * * * * * * * * * * * * * * * * //

dimensions      [turbulentOmega];

internalField   uniform 4.5e-3;

boundaryField
{
    back
    {
        type            symmetryPlane;
    }
    front
    {
        type            symmetryPlane;
    }
    inletCentral
    {
        type            turbulentOmega;
        mixingLength    0.007;
        k               k;
        value           uniform 4.5e-3;
    }
    inletSides
    {
        type            turbulentOmega;
        mixingLength    0.007;
        k               k;
        value           uniform 4.5e-3;
    }
    outlet
    {
        type            inletOutlet;
        inletValue      uniform 4.5e-3;
    }
    walls
    {
        type            omegaWallFunction;
        Cmu             0.09;
        kappa           0.41;
        E               9.8;
        value           $internalField;
    }
}


// ************************************************************************* //
