/*--------------------------------*- C++ -*----------------------------------*\
| =========                 |                                                 |
| \\      /  F ield         | OpenFOAM: The Open Source CFD Toolbox           |
|  \\    /   O peration     | Version:  dev                                   |  
|   \\  /    A nd           | Web:      www.OpenFOAM.org                      |
|    \\/     M anipulation  |                                                 |
\*---------------------------------------------------------------------------*/
FoamFile
{
    version     2.0;
    format      ascii;
    class       dictionary;
    object      volFlowRateSurface;
}
// * * * * * * * * * * * * * * * * * * * * * * * * * * * * * * * * * * * * * //

// This packaged function object interpolates velocity U onto triangles in
// triSurface file and integrates over the surface area.  Triangles need to
// be small (<= cell size) for an accurate integration.

volFlowRateSurface
{
    triSurface <triSurfaceFile>;

    #includeEtc "caseDicts/postProcessing/flowRate/volFlowRateSurface.cfg"
}

// ************************************************************************* //
