/*--------------------------------*- C++ -*----------------------------------*\
  =========                 |
  \\      /  F ield         | OpenFOAM: The Open Source CFD Toolbox
   \\    /   O peration     | Website:  https://openfoam.org
    \\  /    A nd           | Version:  dev
     \\/     M anipulation  |
\*---------------------------------------------------------------------------*/
FoamFile
{
    format      ascii;
    class       dictionary;
    location    "system";
    object      setFieldsDict;
}
// * * * * * * * * * * * * * * * * * * * * * * * * * * * * * * * * * * * * * //

defaultValues
{
    alpha.water     0;
    tracer.water    0;
    tracer.air      0;
}

zones
{
    waterColumn
    {
        type        box;
        zoneType    cell;

        box         (0 0 -1) (0.1461 0.292 1);

        values
        {
            alpha.water     1;
        }
    }

    tracerWater
    {
        type        box;
        zoneType    cell;

        box         (0 0 -1) (0.1461 0.146 1);

        values
        {
            tracer.water    1;
        }
    }

    tracerAir
    {
        type        box;
        zoneType    cell;

        box         (0 0.292 -1) (0.1461 0.438 1);

        values
        {
            tracer.air      1;
        }
    }
}


// ************************************************************************* //
