/*--------------------------------*- C++ -*----------------------------------*\
  =========                 |
  \\      /  F ield         | OpenFOAM: The Open Source CFD Toolbox
   \\    /   O peration     | Website:  https://openfoam.org
    \\  /    A nd           | Version:  dev
     \\/     M anipulation  |
\*---------------------------------------------------------------------------*/
FoamFile
{
    format      ascii;
    class       dictionary;
    object      faceSetDict;
}

// * * * * * * * * * * * * * * * * * * * * * * * * * * * * * * * * * * * * * //

// Name of set to operate on
name facesToBeRemoved;

// One of clear/new/invert/add/delete|subset/list
action new;

// Actions to apply to pointSet. These are all the topoSetSource's ending
// in ..ToFace (see the meshTools library).
topoSetSources
(
    //  Select by explicitly providing face labels
    labelToFace
    {
        value #include "../facesToBeRemoved";
    }
);

// ************************************************************************* //
