/*--------------------------------*- C++ -*----------------------------------*\
  =========                 |
  \\      /  F ield         | OpenFOAM: The Open Source CFD Toolbox
   \\    /   O peration     | Website:  https://openfoam.org
    \\  /    A nd           | Version:  dev
     \\/     M anipulation  |
\*---------------------------------------------------------------------------*/
FoamFile
{
    version     2.0;
    format      ascii;
    class       dictionary;
    object      topoSetDict;
}
// * * * * * * * * * * * * * * * * * * * * * * * * * * * * * * * * * * * * * //

actions
(
    {
        name    background;
        type    cellSet;
        action  new;
        source surfaceToCell;
        sourceInfo
        {
            file            "constant/triSurface/flange.obj";
            outsidePoints   ((-0.026 -0.0275 -0.0235));
            includeCut      true;
            includeInside   true;
            includeOutside  false;
            nearDistance    -1;
            curvature       -100;
        }
    }
);

// ************************************************************************* //
