/*--------------------------------*- C++ -*----------------------------------*\
  =========                 |
  \\      /  F ield         | OpenFOAM: The Open Source CFD Toolbox
   \\    /   O peration     | Website:  https://openfoam.org
    \\  /    A nd           | Version:  dev
     \\/     M anipulation  |
\*---------------------------------------------------------------------------*/
FoamFile
{
    version     2.0;
    format      ascii;
    class       dictionary;
    location    "constant";
    object      fvOptions;
}
// * * * * * * * * * * * * * * * * * * * * * * * * * * * * * * * * * * * * * //

ignition
{
    type            semiImplicitSource;

    selectionMode   cellSet;
    cellSet         ignition;

    volumeMode      specific;

    sources
    {
        h
        {
            explicit
            {
                type        scale;
                scale       squarePulse;
                start       0;
                duration    1;
                value       5e7; // kg/m/s^3
            }
            implicit    0;
        }
    }
}

radiation
{
    type    radiation;
    libs    ("libradiationModels.so");
}

// ************************************************************************* //
