/*--------------------------------*- C++ -*----------------------------------*\
  =========                 |
  \\      /  F ield         | OpenFOAM: The Open Source CFD Toolbox
   \\    /   O peration     | Website:  https://openfoam.org
    \\  /    A nd           | Version:  dev
     \\/     M anipulation  |
\*---------------------------------------------------------------------------*/
FoamFile
{
    format      ascii;
    class       dictionary;
    location    "system";
    object      fvSolution;
}
// * * * * * * * * * * * * * * * * * * * * * * * * * * * * * * * * * * * * * //

solvers
{
    "(rho|G)"
    {
        solver          PCG;
        preconditioner  DIC;
        tolerance       0;
        relTol          0.1;
    }

    "(rho|G)Final"
    {
        $rho;
        tolerance       1e-05;
        relTol          0;
    }

    "(U|h)"
    {
        solver          PBiCGStab;
        preconditioner  DILU;
        tolerance       0;
        relTol          0.1;
    }

    "(U|h)Final"
    {
        $U;
        relTol          0;
        tolerance       1e-05;
    }

    "(k|epsilon)"
    {
        $UFinal;
    }

    p_rgh
    {
        solver          GAMG;
        tolerance       0;
        relTol          0.1;
        smoother        GaussSeidel;
    }

    p_rghFinal
    {
        $p_rgh;
        tolerance       1e-06;
        relTol          0;
    }

    "(Yi|O2|N2|H2O).*"
    {
        $hFinal;
    }
}

PIMPLE
{
    models          yes;
    thermophysics   no;
    flow            no;

    nCorrectors     2;
    nNonOrthogonalCorrectors 0;
    momentumPredictor yes;
}

relaxationFactors
{
    equations
    {
        ".*Final"       1;
    }
}


// ************************************************************************* //
