/*--------------------------------*- C++ -*----------------------------------*\
  =========                 |
  \\      /  F ield         | OpenFOAM: The Open Source CFD Toolbox
   \\    /   O peration     | Website:  https://openfoam.org
    \\  /    A nd           | Version:  dev
     \\/     M anipulation  |
\*---------------------------------------------------------------------------*/
FoamFile
{
    format      ascii;
    class       dictionary;
    location    "constant";
    object      phaseProperties;
}
// * * * * * * * * * * * * * * * * * * * * * * * * * * * * * * * * * * * * * //

phases          (gas liquid);

gas
{
    type            purePhaseModel;

    diameterModel
    {
        type            populationBalance;
        populationBalance bubbles;
        nGroups         27;
    }

    residualAlpha   1e-6;
}

liquid
{
    type            purePhaseModel;

    diameterModel   none;

    residualAlpha   1e-6;
}

blending
{
    default
    {
        type            continuous;
        phase           liquid;
    }
}

surfaceTension
{
    gas_liquid
    {
        type            constant;
        sigma           0.00176574;
    }
}

bubbles
{
    continuousPhase liquid;

    sphericalDiameters
    {
        type            exponential;
        min             1e-4;
        max             1.14e-2;
    }

    shapeModel      spherical;

    coalescenceModels
    (
        PrinceBlanch
        {
            turbulence      on;
            buoyancy        on;
            laminarShear    off;
            C1              0.05;
        }
    );

    breakupModels
    ();

    binaryBreakupModels
    (
        LehrMilliesMewes
        {}
    );
}

// ************************************************************************* //
