/*--------------------------------*- C++ -*----------------------------------*\
  =========                 |
  \\      /  F ield         | OpenFOAM: The Open Source CFD Toolbox
   \\    /   O peration     | Website:  https://openfoam.org
    \\  /    A nd           | Version:  dev
     \\/     M anipulation  |
\*---------------------------------------------------------------------------*/
FoamFile
{
    format      ascii;
    class       volScalarField;
    location    "0";
    object      CH4;
}
// * * * * * * * * * * * * * * * * * * * * * * * * * * * * * * * * * * * * * //

dimensions      [];

internalField   uniform 0;

boundaryField
{
    "(outlet|sides)"
    {
        type            inletOutlet;
        inletValue      $internalField;
        value           $internalField;
    }

    base
    {
        type            zeroGradient;
    }

    inlet
    {
        type            fixedValue;
        value           uniform 1.0;
    }
}


// ************************************************************************* //
