/*--------------------------------*- C++ -*----------------------------------*\
  =========                 |
  \\      /  F ield         | OpenFOAM: The Open Source CFD Toolbox
   \\    /   O peration     | Website:  https://openfoam.org
    \\  /    A nd           | Version:  dev
     \\/     M anipulation  |
\*---------------------------------------------------------------------------*/
FoamFile
{
    format      ascii;
    class       dictionary;
    location    "constant";
    object      dynamicMeshDict;
}
// * * * * * * * * * * * * * * * * * * * * * * * * * * * * * * * * * * * * * //

mover
{
    type            motionSolver;

    libs            ("libfvMeshMovers.so" "libfvMotionSolvers.so");

    motionSolver    solidBody;

    select          all;

    solidBodyMotionFunction  rotatingMotion;

    origin          (0 0 0);
    axis            (0 0 1);

    rpm             60;
}


// ************************************************************************* //
