/*--------------------------------*- C++ -*----------------------------------*\
  =========                 |
  \\      /  F ield         | OpenFOAM: The Open Source CFD Toolbox
   \\    /   O peration     | Website:  https://openfoam.org
    \\  /    A nd           | Version:  dev
     \\/     M anipulation  |
\*---------------------------------------------------------------------------*/
FoamFile
{
    format      ascii;
    class       dictionary;
    location    "system";
    object      extrudeProperties;
}
// * * * * * * * * * * * * * * * * * * * * * * * * * * * * * * * * * * * * * //

constructFrom patch;
sourceCase "$FOAM_CASE";

sourcePatches (front);
exposedPatchName back;

extrudeModel        wedge;

sectorCoeffs
{
    axisPt          (0 0 0);
    axis            (1 0 0);
    angle           1;
}

flipNormals false;
mergeFaces false;

// ************************************************************************* //
