/*--------------------------------*- C++ -*----------------------------------*\
  =========                 |
  \\      /  F ield         | OpenFOAM: The Open Source CFD Toolbox
   \\    /   O peration     | Website:  https://openfoam.org
    \\  /    A nd           | Version:  dev
     \\/     M anipulation  |
\*---------------------------------------------------------------------------*/
FoamFile
{
    format      ascii;
    class       volScalarField;
    location    "0";
    object      p;
}
// * * * * * * * * * * * * * * * * * * * * * * * * * * * * * * * * * * * * * //

dimensions      [kinematicPressure];

internalField   uniform 0;

boundaryField
{
    walls
    {
        type            fixedFluxPressure;
        value           $internalField;
    }

    lowerInlet
    {
        type            fixedFluxPressure;
        value           $internalField;
    }

    upperInlet
    {
        type            fixedFluxPressure;
        value           $internalField;
    }

    outlet
    {
        type            fixedValue;
        value           uniform 0;
    }

    frontAndBack
    {
        type            symmetry;
    }
}

// ************************************************************************* //
