/*--------------------------------*- C++ -*----------------------------------*\
  =========                 |
  \\      /  F ield         | OpenFOAM: The Open Source CFD Toolbox
   \\    /   O peration     | Website:  https://openfoam.org
    \\  /    A nd           | Version:  dev
     \\/     M anipulation  |
\*---------------------------------------------------------------------------*/
FoamFile
{
    format      ascii;
    class       volScalarField;
    location    "0";
    object      T;
}
// * * * * * * * * * * * * * * * * * * * * * * * * * * * * * * * * * * * * * //

#include "${FOAM_CASE}/constant/caseSettings"

dimensions      [0 0 0 1 0 0 0];

internalField   uniform $!outerInlet/T;

boundaryField
{
    #includeEtc "caseDicts/setConstraintTypes"

    innerInlet
    {
        type            fixedValue;
        value           uniform $!innerInlet/T;
    }

    outerInlet
    {
        type            fixedValue;
        value           uniform $!outerInlet/T;
    }

    outlet
    {
        $!outlet/T;
    }

    staticWalls
    {
        $!wall/T;
    }

    movingWalls
    {
        $staticWalls;
    }

    nonCouple
    {
        type            zeroGradient;
    }
}

// ************************************************************************* //
