/*--------------------------------*- C++ -*----------------------------------*\
  =========                 |
  \\      /  F ield         | OpenFOAM: The Open Source CFD Toolbox
   \\    /   O peration     | Website:  https://openfoam.org
    \\  /    A nd           | Version:  dev
     \\/     M anipulation  |
\*---------------------------------------------------------------------------*/
FoamFile
{
    format      ascii;
    class       volScalarField;
    location    "0";
    object      p;
}
// * * * * * * * * * * * * * * * * * * * * * * * * * * * * * * * * * * * * * //

dimensions      [kinematicPressure];

internalField   uniform 0;

boundaryField
{
    inlet
    {
        type            totalPressure;
        p0              $internalField;
        value           $internalField;
    }
    outlet
    {
        type            totalPressure;
        p0              $internalField;
        value           $internalField;
    }
    walls
    {
        type            zeroGradient;
    }
    frontAndBack
    {
        type            zeroGradient;
    }
}

// ************************************************************************* //
