/*--------------------------------*- C++ -*----------------------------------*\
  =========                 |
  \\      /  F ield         | OpenFOAM: The Open Source CFD Toolbox
   \\    /   O peration     | Website:  https://openfoam.org
    \\  /    A nd           | Version:  dev
     \\/     M anipulation  |
\*---------------------------------------------------------------------------*/
FoamFile
{
    format      ascii;
    class       dictionary;
    location    "constant";
    object      financialProperties;
}
// * * * * * * * * * * * * * * * * * * * * * * * * * * * * * * * * * * * * * //

strike          [0 1 0 0 0 0 0] 40;

r               [0 0 -1 0 0 0 0] 0.1;

sigma           [0 0 -0.5 0 0 0 0] 0.2;

s               [0 0 -1 0 0 0 0] 0;

xi              [0 0 -0.5 0 0 0 0] 0.1;

eta             [0 0 0 0 0 0 0] 0;

// ************************************************************************* //
