/*--------------------------------*- C++ -*----------------------------------*\
  =========                 |
  \\      /  F ield         | OpenFOAM: The Open Source CFD Toolbox
   \\    /   O peration     | Website:  https://openfoam.org
    \\  /    A nd           | Version:  dev
     \\/     M anipulation  |
\*---------------------------------------------------------------------------*/
FoamFile
{
    format      ascii;
    class       vectorField;
    object      cloudPositions;
}
// * * * * * * * * * * * * * * * * * * * * * * * * * * * * * * * * * * * * * //


(
(0.01 0.299 0.0032)
(0.01 0.305 0.0032)
(0.01 0.311 0.0032)
(0.01 0.317 0.0032)
(0.01 0.323 0.0032)
(0.01 0.329 0.0032)
(0.01 0.335 0.0032)
(0.01 0.341 0.0032)
(0.01 0.347 0.0032)
(0.01 0.353 0.0032)
(0.01 0.359 0.0032)
(0.01 0.365 0.0032)
(0.01 0.371 0.0032)
(0.01 0.377 0.0032)
(0.01 0.383 0.0032)
(0.01 0.389 0.0032)
(0.01 0.395 0.0032)
(0.01 0.401 0.0032)
(0.01 0.407 0.0032)
(0.01 0.413 0.0032)
(0.01 0.419 0.0032)
(0.01 0.425 0.0032)
(0.01 0.431 0.0032)
(0.01 0.437 0.0032)
(0.01 0.443 0.0032)
(0.01 0.449 0.0032)
(0.01 0.455 0.0032)
(0.01 0.461 0.0032)
(0.01 0.467 0.0032)
(0.01 0.473 0.0032)
(0.01 0.479 0.0032)
(0.01 0.485 0.0032)
(0.01 0.491 0.0032)
(0.01 0.497 0.0032)
(0.016 0.077 0.0032)
(0.016 0.083 0.0032)
(0.016 0.089 0.0032)
(0.016 0.095 0.0032)
(0.016 0.101 0.0032)
(0.016 0.107 0.0032)
(0.016 0.113 0.0032)
(0.016 0.119 0.0032)
(0.016 0.125 0.0032)
(0.016 0.131 0.0032)
(0.016 0.137 0.0032)
(0.016 0.143 0.0032)
(0.016 0.149 0.0032)
(0.016 0.155 0.0032)
(0.016 0.161 0.0032)
(0.016 0.167 0.0032)
(0.016 0.173 0.0032)
(0.016 0.179 0.0032)
(0.016 0.185 0.0032)
(0.016 0.191 0.0032)
(0.016 0.197 0.0032)
(0.016 0.203 0.0032)
(0.016 0.209 0.0032)
(0.016 0.215 0.0032)
(0.016 0.221 0.0032)
(0.016 0.227 0.0032)
(0.016 0.233 0.0032)
(0.016 0.239 0.0032)
(0.016 0.245 0.0032)
(0.016 0.251 0.0032)
(0.016 0.257 0.0032)
(0.016 0.263 0.0032)
(0.016 0.269 0.0032)
(0.016 0.275 0.0032)
(0.016 0.281 0.0032)
(0.016 0.287 0.0032)
(0.016 0.293 0.0032)
(0.016 0.299 0.0032)
(0.016 0.305 0.0032)
(0.016 0.311 0.0032)
(0.016 0.317 0.0032)
(0.016 0.323 0.0032)
(0.016 0.329 0.0032)
(0.016 0.335 0.0032)
(0.016 0.341 0.0032)
(0.016 0.347 0.0032)
(0.016 0.353 0.0032)
(0.016 0.359 0.0032)
(0.016 0.365 0.0032)
(0.016 0.371 0.0032)
(0.016 0.377 0.0032)
(0.016 0.383 0.0032)
(0.016 0.389 0.0032)
(0.016 0.395 0.0032)
(0.016 0.401 0.0032)
(0.016 0.407 0.0032)
(0.016 0.413 0.0032)
(0.016 0.419 0.0032)
(0.016 0.425 0.0032)
(0.016 0.431 0.0032)
(0.016 0.437 0.0032)
(0.016 0.443 0.0032)
(0.016 0.449 0.0032)
(0.016 0.455 0.0032)
(0.016 0.461 0.0032)
(0.016 0.467 0.0032)
(0.016 0.473 0.0032)
(0.016 0.479 0.0032)
(0.016 0.485 0.0032)
(0.016 0.491 0.0032)
(0.016 0.497 0.0032)
(0.022 0.077 0.0032)
(0.022 0.083 0.0032)
(0.022 0.089 0.0032)
(0.022 0.095 0.0032)
(0.022 0.101 0.0032)
(0.022 0.107 0.0032)
(0.022 0.113 0.0032)
(0.022 0.119 0.0032)
(0.022 0.125 0.0032)
(0.022 0.131 0.0032)
(0.022 0.137 0.0032)
(0.022 0.143 0.0032)
(0.022 0.149 0.0032)
(0.022 0.155 0.0032)
(0.022 0.161 0.0032)
(0.022 0.167 0.0032)
(0.022 0.173 0.0032)
(0.022 0.179 0.0032)
(0.022 0.185 0.0032)
(0.022 0.191 0.0032)
(0.022 0.197 0.0032)
(0.022 0.203 0.0032)
(0.022 0.209 0.0032)
(0.022 0.215 0.0032)
(0.022 0.221 0.0032)
(0.022 0.227 0.0032)
(0.022 0.233 0.0032)
(0.022 0.239 0.0032)
(0.022 0.245 0.0032)
(0.022 0.251 0.0032)
(0.022 0.257 0.0032)
(0.022 0.263 0.0032)
(0.022 0.269 0.0032)
(0.022 0.275 0.0032)
(0.022 0.281 0.0032)
(0.022 0.287 0.0032)
(0.022 0.293 0.0032)
(0.022 0.299 0.0032)
(0.022 0.305 0.0032)
(0.022 0.311 0.0032)
(0.022 0.317 0.0032)
(0.022 0.323 0.0032)
(0.022 0.329 0.0032)
(0.022 0.335 0.0032)
(0.022 0.341 0.0032)
(0.022 0.347 0.0032)
(0.022 0.353 0.0032)
(0.022 0.359 0.0032)
(0.022 0.365 0.0032)
(0.022 0.371 0.0032)
(0.022 0.377 0.0032)
(0.022 0.383 0.0032)
(0.022 0.389 0.0032)
(0.022 0.395 0.0032)
(0.022 0.401 0.0032)
(0.022 0.407 0.0032)
(0.022 0.413 0.0032)
(0.022 0.419 0.0032)
(0.022 0.425 0.0032)
(0.022 0.431 0.0032)
(0.022 0.437 0.0032)
(0.022 0.443 0.0032)
(0.022 0.449 0.0032)
(0.022 0.455 0.0032)
(0.022 0.461 0.0032)
(0.022 0.467 0.0032)
(0.022 0.473 0.0032)
(0.022 0.479 0.0032)
(0.022 0.485 0.0032)
(0.022 0.491 0.0032)
(0.022 0.497 0.0032)
(0.028 0.077 0.0032)
(0.028 0.083 0.0032)
(0.028 0.089 0.0032)
(0.028 0.095 0.0032)
(0.028 0.101 0.0032)
(0.028 0.107 0.0032)
(0.028 0.113 0.0032)
(0.028 0.119 0.0032)
(0.028 0.125 0.0032)
(0.028 0.131 0.0032)
(0.028 0.137 0.0032)
(0.028 0.143 0.0032)
(0.028 0.149 0.0032)
(0.028 0.155 0.0032)
(0.028 0.161 0.0032)
(0.028 0.167 0.0032)
(0.028 0.173 0.0032)
(0.028 0.179 0.0032)
(0.028 0.185 0.0032)
(0.028 0.191 0.0032)
(0.028 0.197 0.0032)
(0.028 0.203 0.0032)
(0.028 0.209 0.0032)
(0.028 0.215 0.0032)
(0.028 0.221 0.0032)
(0.028 0.227 0.0032)
(0.028 0.233 0.0032)
(0.028 0.239 0.0032)
(0.028 0.245 0.0032)
(0.028 0.251 0.0032)
(0.028 0.257 0.0032)
(0.028 0.263 0.0032)
(0.028 0.269 0.0032)
(0.028 0.275 0.0032)
(0.028 0.281 0.0032)
(0.028 0.287 0.0032)
(0.028 0.293 0.0032)
(0.028 0.299 0.0032)
(0.028 0.305 0.0032)
(0.028 0.311 0.0032)
(0.028 0.317 0.0032)
(0.028 0.323 0.0032)
(0.028 0.329 0.0032)
(0.028 0.335 0.0032)
(0.028 0.341 0.0032)
(0.028 0.347 0.0032)
(0.028 0.353 0.0032)
(0.028 0.359 0.0032)
(0.028 0.365 0.0032)
(0.028 0.371 0.0032)
(0.028 0.377 0.0032)
(0.028 0.383 0.0032)
(0.028 0.389 0.0032)
(0.028 0.395 0.0032)
(0.028 0.401 0.0032)
(0.028 0.407 0.0032)
(0.028 0.413 0.0032)
(0.028 0.419 0.0032)
(0.028 0.425 0.0032)
(0.028 0.431 0.0032)
(0.028 0.437 0.0032)
(0.028 0.443 0.0032)
(0.028 0.449 0.0032)
(0.028 0.455 0.0032)
(0.028 0.461 0.0032)
(0.028 0.467 0.0032)
(0.028 0.473 0.0032)
(0.028 0.479 0.0032)
(0.028 0.485 0.0032)
(0.028 0.491 0.0032)
(0.028 0.497 0.0032)
(0.034 0.077 0.0032)
(0.034 0.083 0.0032)
(0.034 0.089 0.0032)
(0.034 0.095 0.0032)
(0.034 0.101 0.0032)
(0.034 0.107 0.0032)
(0.034 0.113 0.0032)
(0.034 0.119 0.0032)
(0.034 0.125 0.0032)
(0.034 0.131 0.0032)
(0.034 0.137 0.0032)
(0.034 0.143 0.0032)
(0.034 0.149 0.0032)
(0.034 0.155 0.0032)
(0.034 0.161 0.0032)
(0.034 0.167 0.0032)
(0.034 0.173 0.0032)
(0.034 0.179 0.0032)
(0.034 0.185 0.0032)
(0.034 0.191 0.0032)
(0.034 0.197 0.0032)
(0.034 0.203 0.0032)
(0.034 0.209 0.0032)
(0.034 0.215 0.0032)
(0.034 0.221 0.0032)
(0.034 0.227 0.0032)
(0.034 0.233 0.0032)
(0.034 0.239 0.0032)
(0.034 0.245 0.0032)
(0.034 0.251 0.0032)
(0.034 0.257 0.0032)
(0.034 0.263 0.0032)
(0.034 0.269 0.0032)
(0.034 0.275 0.0032)
(0.034 0.281 0.0032)
(0.034 0.287 0.0032)
(0.034 0.293 0.0032)
(0.034 0.299 0.0032)
(0.034 0.305 0.0032)
(0.034 0.311 0.0032)
(0.034 0.317 0.0032)
(0.034 0.323 0.0032)
(0.034 0.329 0.0032)
(0.034 0.335 0.0032)
(0.034 0.341 0.0032)
(0.034 0.347 0.0032)
(0.034 0.353 0.0032)
(0.034 0.359 0.0032)
(0.034 0.365 0.0032)
(0.034 0.371 0.0032)
(0.034 0.377 0.0032)
(0.034 0.383 0.0032)
(0.034 0.389 0.0032)
(0.034 0.395 0.0032)
(0.034 0.401 0.0032)
(0.034 0.407 0.0032)
(0.034 0.413 0.0032)
(0.034 0.419 0.0032)
(0.034 0.425 0.0032)
(0.034 0.431 0.0032)
(0.034 0.437 0.0032)
(0.034 0.443 0.0032)
(0.034 0.449 0.0032)
(0.034 0.455 0.0032)
(0.034 0.461 0.0032)
(0.034 0.467 0.0032)
(0.034 0.473 0.0032)
(0.034 0.479 0.0032)
(0.034 0.485 0.0032)
(0.034 0.491 0.0032)
(0.034 0.497 0.0032)
(0.04 0.077 0.0032)
(0.04 0.083 0.0032)
(0.04 0.089 0.0032)
(0.04 0.095 0.0032)
(0.04 0.101 0.0032)
(0.04 0.107 0.0032)
(0.04 0.113 0.0032)
(0.04 0.119 0.0032)
(0.04 0.125 0.0032)
(0.04 0.131 0.0032)
(0.04 0.137 0.0032)
(0.04 0.143 0.0032)
(0.04 0.149 0.0032)
(0.04 0.155 0.0032)
(0.04 0.161 0.0032)
(0.04 0.167 0.0032)
(0.04 0.173 0.0032)
(0.04 0.179 0.0032)
(0.04 0.185 0.0032)
(0.04 0.191 0.0032)
(0.04 0.197 0.0032)
(0.04 0.203 0.0032)
(0.04 0.209 0.0032)
(0.04 0.215 0.0032)
(0.04 0.221 0.0032)
(0.04 0.227 0.0032)
(0.04 0.233 0.0032)
(0.04 0.239 0.0032)
(0.04 0.245 0.0032)
(0.04 0.251 0.0032)
(0.04 0.257 0.0032)
(0.04 0.263 0.0032)
(0.04 0.269 0.0032)
(0.04 0.275 0.0032)
(0.04 0.281 0.0032)
(0.04 0.287 0.0032)
(0.04 0.293 0.0032)
(0.04 0.299 0.0032)
(0.04 0.305 0.0032)
(0.04 0.311 0.0032)
(0.04 0.317 0.0032)
(0.04 0.323 0.0032)
(0.04 0.329 0.0032)
(0.04 0.335 0.0032)
(0.04 0.341 0.0032)
(0.04 0.347 0.0032)
(0.04 0.353 0.0032)
(0.04 0.359 0.0032)
(0.04 0.365 0.0032)
(0.04 0.371 0.0032)
(0.04 0.377 0.0032)
(0.04 0.383 0.0032)
(0.04 0.389 0.0032)
(0.04 0.395 0.0032)
(0.04 0.401 0.0032)
(0.04 0.407 0.0032)
(0.04 0.413 0.0032)
(0.04 0.419 0.0032)
(0.04 0.425 0.0032)
(0.04 0.431 0.0032)
(0.04 0.437 0.0032)
(0.04 0.443 0.0032)
(0.04 0.449 0.0032)
(0.04 0.455 0.0032)
(0.04 0.461 0.0032)
(0.04 0.467 0.0032)
(0.04 0.473 0.0032)
(0.04 0.479 0.0032)
(0.04 0.485 0.0032)
(0.04 0.491 0.0032)
(0.04 0.497 0.0032)
(0.046 0.077 0.0032)
(0.046 0.083 0.0032)
(0.046 0.089 0.0032)
(0.046 0.095 0.0032)
(0.046 0.101 0.0032)
(0.046 0.107 0.0032)
(0.046 0.113 0.0032)
(0.046 0.119 0.0032)
(0.046 0.125 0.0032)
(0.046 0.131 0.0032)
(0.046 0.137 0.0032)
(0.046 0.143 0.0032)
(0.046 0.149 0.0032)
(0.046 0.155 0.0032)
(0.046 0.161 0.0032)
(0.046 0.167 0.0032)
(0.046 0.173 0.0032)
(0.046 0.179 0.0032)
(0.046 0.185 0.0032)
(0.046 0.191 0.0032)
(0.046 0.197 0.0032)
(0.046 0.203 0.0032)
(0.046 0.209 0.0032)
(0.046 0.215 0.0032)
(0.046 0.221 0.0032)
(0.046 0.227 0.0032)
(0.046 0.233 0.0032)
(0.046 0.239 0.0032)
(0.046 0.245 0.0032)
(0.046 0.251 0.0032)
(0.046 0.257 0.0032)
(0.046 0.263 0.0032)
(0.046 0.269 0.0032)
(0.046 0.275 0.0032)
(0.046 0.281 0.0032)
(0.046 0.287 0.0032)
(0.046 0.293 0.0032)
(0.046 0.299 0.0032)
(0.046 0.305 0.0032)
(0.046 0.311 0.0032)
(0.046 0.317 0.0032)
(0.046 0.323 0.0032)
(0.046 0.329 0.0032)
(0.046 0.335 0.0032)
(0.046 0.341 0.0032)
(0.046 0.347 0.0032)
(0.046 0.353 0.0032)
(0.046 0.359 0.0032)
(0.046 0.365 0.0032)
(0.046 0.371 0.0032)
(0.046 0.377 0.0032)
(0.046 0.383 0.0032)
(0.046 0.389 0.0032)
(0.046 0.395 0.0032)
(0.046 0.401 0.0032)
(0.046 0.407 0.0032)
(0.046 0.413 0.0032)
(0.046 0.419 0.0032)
(0.046 0.425 0.0032)
(0.046 0.431 0.0032)
(0.046 0.437 0.0032)
(0.046 0.443 0.0032)
(0.046 0.449 0.0032)
(0.046 0.455 0.0032)
(0.046 0.461 0.0032)
(0.046 0.467 0.0032)
(0.046 0.473 0.0032)
(0.046 0.479 0.0032)
(0.046 0.485 0.0032)
(0.046 0.491 0.0032)
(0.046 0.497 0.0032)
(0.052 0.077 0.0032)
(0.052 0.083 0.0032)
(0.052 0.089 0.0032)
(0.052 0.095 0.0032)
(0.052 0.101 0.0032)
(0.052 0.107 0.0032)
(0.052 0.113 0.0032)
(0.052 0.119 0.0032)
(0.052 0.125 0.0032)
(0.052 0.131 0.0032)
(0.052 0.137 0.0032)
(0.052 0.143 0.0032)
(0.052 0.149 0.0032)
(0.052 0.155 0.0032)
(0.052 0.161 0.0032)
(0.052 0.167 0.0032)
(0.052 0.173 0.0032)
(0.052 0.179 0.0032)
(0.052 0.185 0.0032)
(0.052 0.191 0.0032)
(0.052 0.197 0.0032)
(0.052 0.203 0.0032)
(0.052 0.209 0.0032)
(0.052 0.215 0.0032)
(0.052 0.221 0.0032)
(0.052 0.227 0.0032)
(0.052 0.233 0.0032)
(0.052 0.239 0.0032)
(0.052 0.245 0.0032)
(0.052 0.251 0.0032)
(0.052 0.257 0.0032)
(0.052 0.263 0.0032)
(0.052 0.269 0.0032)
(0.052 0.275 0.0032)
(0.052 0.281 0.0032)
(0.052 0.287 0.0032)
(0.052 0.293 0.0032)
(0.052 0.299 0.0032)
(0.052 0.305 0.0032)
(0.052 0.311 0.0032)
(0.052 0.317 0.0032)
(0.052 0.323 0.0032)
(0.052 0.329 0.0032)
(0.052 0.335 0.0032)
(0.052 0.341 0.0032)
(0.052 0.347 0.0032)
(0.052 0.353 0.0032)
(0.052 0.359 0.0032)
(0.052 0.365 0.0032)
(0.052 0.371 0.0032)
(0.052 0.377 0.0032)
(0.052 0.383 0.0032)
(0.052 0.389 0.0032)
(0.052 0.395 0.0032)
(0.052 0.401 0.0032)
(0.052 0.407 0.0032)
(0.052 0.413 0.0032)
(0.052 0.419 0.0032)
(0.052 0.425 0.0032)
(0.052 0.431 0.0032)
(0.052 0.437 0.0032)
(0.052 0.443 0.0032)
(0.052 0.449 0.0032)
(0.052 0.455 0.0032)
(0.052 0.461 0.0032)
(0.052 0.467 0.0032)
(0.052 0.473 0.0032)
(0.052 0.479 0.0032)
(0.052 0.485 0.0032)
(0.052 0.491 0.0032)
(0.052 0.497 0.0032)
(0.058 0.077 0.0032)
(0.058 0.083 0.0032)
(0.058 0.089 0.0032)
(0.058 0.095 0.0032)
(0.058 0.101 0.0032)
(0.058 0.107 0.0032)
(0.058 0.113 0.0032)
(0.058 0.119 0.0032)
(0.058 0.125 0.0032)
(0.058 0.131 0.0032)
(0.058 0.137 0.0032)
(0.058 0.143 0.0032)
(0.058 0.149 0.0032)
(0.058 0.155 0.0032)
(0.058 0.161 0.0032)
(0.058 0.167 0.0032)
(0.058 0.173 0.0032)
(0.058 0.179 0.0032)
(0.058 0.185 0.0032)
(0.058 0.191 0.0032)
(0.058 0.197 0.0032)
(0.058 0.203 0.0032)
(0.058 0.209 0.0032)
(0.058 0.215 0.0032)
(0.058 0.221 0.0032)
(0.058 0.227 0.0032)
(0.058 0.233 0.0032)
(0.058 0.239 0.0032)
(0.058 0.245 0.0032)
(0.058 0.251 0.0032)
(0.058 0.257 0.0032)
(0.058 0.263 0.0032)
(0.058 0.269 0.0032)
(0.058 0.275 0.0032)
(0.058 0.281 0.0032)
(0.058 0.287 0.0032)
(0.058 0.293 0.0032)
(0.058 0.299 0.0032)
(0.058 0.305 0.0032)
(0.058 0.311 0.0032)
(0.058 0.317 0.0032)
(0.058 0.323 0.0032)
(0.058 0.329 0.0032)
(0.058 0.335 0.0032)
(0.058 0.341 0.0032)
(0.058 0.347 0.0032)
(0.058 0.353 0.0032)
(0.058 0.359 0.0032)
(0.058 0.365 0.0032)
(0.058 0.371 0.0032)
(0.058 0.377 0.0032)
(0.058 0.383 0.0032)
(0.058 0.389 0.0032)
(0.058 0.395 0.0032)
(0.058 0.401 0.0032)
(0.058 0.407 0.0032)
(0.058 0.413 0.0032)
(0.058 0.419 0.0032)
(0.058 0.425 0.0032)
(0.058 0.431 0.0032)
(0.058 0.437 0.0032)
(0.058 0.443 0.0032)
(0.058 0.449 0.0032)
(0.058 0.455 0.0032)
(0.058 0.461 0.0032)
(0.058 0.467 0.0032)
(0.058 0.473 0.0032)
(0.058 0.479 0.0032)
(0.058 0.485 0.0032)
(0.058 0.491 0.0032)
(0.058 0.497 0.0032)
(0.064 0.077 0.0032)
(0.064 0.083 0.0032)
(0.064 0.089 0.0032)
(0.064 0.095 0.0032)
(0.064 0.101 0.0032)
(0.064 0.107 0.0032)
(0.064 0.113 0.0032)
(0.064 0.119 0.0032)
(0.064 0.125 0.0032)
(0.064 0.131 0.0032)
(0.064 0.137 0.0032)
(0.064 0.143 0.0032)
(0.064 0.149 0.0032)
(0.064 0.155 0.0032)
(0.064 0.161 0.0032)
(0.064 0.167 0.0032)
(0.064 0.173 0.0032)
(0.064 0.179 0.0032)
(0.064 0.185 0.0032)
(0.064 0.191 0.0032)
(0.064 0.197 0.0032)
(0.064 0.203 0.0032)
(0.064 0.209 0.0032)
(0.064 0.215 0.0032)
(0.064 0.221 0.0032)
(0.064 0.227 0.0032)
(0.064 0.233 0.0032)
(0.064 0.239 0.0032)
(0.064 0.245 0.0032)
(0.064 0.251 0.0032)
(0.064 0.257 0.0032)
(0.064 0.263 0.0032)
(0.064 0.269 0.0032)
(0.064 0.275 0.0032)
(0.064 0.281 0.0032)
(0.064 0.287 0.0032)
(0.064 0.293 0.0032)
(0.064 0.299 0.0032)
(0.064 0.305 0.0032)
(0.064 0.311 0.0032)
(0.064 0.317 0.0032)
(0.064 0.323 0.0032)
(0.064 0.329 0.0032)
(0.064 0.335 0.0032)
(0.064 0.341 0.0032)
(0.064 0.347 0.0032)
(0.064 0.353 0.0032)
(0.064 0.359 0.0032)
(0.064 0.365 0.0032)
(0.064 0.371 0.0032)
(0.064 0.377 0.0032)
(0.064 0.383 0.0032)
(0.064 0.389 0.0032)
(0.064 0.395 0.0032)
(0.064 0.401 0.0032)
(0.064 0.407 0.0032)
(0.064 0.413 0.0032)
(0.064 0.419 0.0032)
(0.064 0.425 0.0032)
(0.064 0.431 0.0032)
(0.064 0.437 0.0032)
(0.064 0.443 0.0032)
(0.064 0.449 0.0032)
(0.064 0.455 0.0032)
(0.064 0.461 0.0032)
(0.064 0.467 0.0032)
(0.064 0.473 0.0032)
(0.064 0.479 0.0032)
(0.064 0.485 0.0032)
(0.064 0.491 0.0032)
(0.064 0.497 0.0032)
(0.07 0.077 0.0032)
(0.07 0.083 0.0032)
(0.07 0.089 0.0032)
(0.07 0.095 0.0032)
(0.07 0.101 0.0032)
(0.07 0.107 0.0032)
(0.07 0.113 0.0032)
(0.07 0.119 0.0032)
(0.07 0.125 0.0032)
(0.07 0.131 0.0032)
(0.07 0.137 0.0032)
(0.07 0.143 0.0032)
(0.07 0.149 0.0032)
(0.07 0.155 0.0032)
(0.07 0.161 0.0032)
(0.07 0.167 0.0032)
(0.07 0.173 0.0032)
(0.07 0.179 0.0032)
(0.07 0.185 0.0032)
(0.07 0.191 0.0032)
(0.07 0.197 0.0032)
(0.07 0.203 0.0032)
(0.07 0.209 0.0032)
(0.07 0.215 0.0032)
(0.07 0.221 0.0032)
(0.07 0.227 0.0032)
(0.07 0.233 0.0032)
(0.07 0.239 0.0032)
(0.07 0.245 0.0032)
(0.07 0.251 0.0032)
(0.07 0.257 0.0032)
(0.07 0.263 0.0032)
(0.07 0.269 0.0032)
(0.07 0.275 0.0032)
(0.07 0.281 0.0032)
(0.07 0.287 0.0032)
(0.07 0.293 0.0032)
(0.07 0.299 0.0032)
(0.07 0.305 0.0032)
(0.07 0.311 0.0032)
(0.07 0.317 0.0032)
(0.07 0.323 0.0032)
(0.07 0.329 0.0032)
(0.07 0.335 0.0032)
(0.07 0.341 0.0032)
(0.07 0.347 0.0032)
(0.07 0.353 0.0032)
(0.07 0.359 0.0032)
(0.07 0.365 0.0032)
(0.07 0.371 0.0032)
(0.07 0.377 0.0032)
(0.07 0.383 0.0032)
(0.07 0.389 0.0032)
(0.07 0.395 0.0032)
(0.07 0.401 0.0032)
(0.07 0.407 0.0032)
(0.07 0.413 0.0032)
(0.07 0.419 0.0032)
(0.07 0.425 0.0032)
(0.07 0.431 0.0032)
(0.07 0.437 0.0032)
(0.07 0.443 0.0032)
(0.07 0.449 0.0032)
(0.07 0.455 0.0032)
(0.07 0.461 0.0032)
(0.07 0.467 0.0032)
(0.07 0.473 0.0032)
(0.07 0.479 0.0032)
(0.07 0.485 0.0032)
(0.07 0.491 0.0032)
(0.07 0.497 0.0032)
(0.076 0.077 0.0032)
(0.076 0.083 0.0032)
(0.076 0.089 0.0032)
(0.076 0.095 0.0032)
(0.076 0.101 0.0032)
(0.076 0.107 0.0032)
(0.076 0.113 0.0032)
(0.076 0.119 0.0032)
(0.076 0.125 0.0032)
(0.076 0.131 0.0032)
(0.076 0.137 0.0032)
(0.076 0.143 0.0032)
(0.076 0.149 0.0032)
(0.076 0.155 0.0032)
(0.076 0.161 0.0032)
(0.076 0.167 0.0032)
(0.076 0.173 0.0032)
(0.076 0.179 0.0032)
(0.076 0.185 0.0032)
(0.076 0.191 0.0032)
(0.076 0.197 0.0032)
(0.076 0.203 0.0032)
(0.076 0.209 0.0032)
(0.076 0.215 0.0032)
(0.076 0.221 0.0032)
(0.076 0.227 0.0032)
(0.076 0.233 0.0032)
(0.076 0.239 0.0032)
(0.076 0.245 0.0032)
(0.076 0.251 0.0032)
(0.076 0.257 0.0032)
(0.076 0.263 0.0032)
(0.076 0.269 0.0032)
(0.076 0.275 0.0032)
(0.076 0.281 0.0032)
(0.076 0.287 0.0032)
(0.076 0.293 0.0032)
(0.076 0.299 0.0032)
(0.076 0.305 0.0032)
(0.076 0.311 0.0032)
(0.076 0.317 0.0032)
(0.076 0.323 0.0032)
(0.076 0.329 0.0032)
(0.076 0.335 0.0032)
(0.076 0.341 0.0032)
(0.076 0.347 0.0032)
(0.076 0.353 0.0032)
(0.076 0.359 0.0032)
(0.076 0.365 0.0032)
(0.076 0.371 0.0032)
(0.076 0.377 0.0032)
(0.076 0.383 0.0032)
(0.076 0.389 0.0032)
(0.076 0.395 0.0032)
(0.076 0.401 0.0032)
(0.076 0.407 0.0032)
(0.076 0.413 0.0032)
(0.076 0.419 0.0032)
(0.076 0.425 0.0032)
(0.076 0.431 0.0032)
(0.076 0.437 0.0032)
(0.076 0.443 0.0032)
(0.076 0.449 0.0032)
(0.076 0.455 0.0032)
(0.076 0.461 0.0032)
(0.076 0.467 0.0032)
(0.076 0.473 0.0032)
(0.076 0.479 0.0032)
(0.076 0.485 0.0032)
(0.076 0.491 0.0032)
(0.076 0.497 0.0032)
(0.082 0.077 0.0032)
(0.082 0.083 0.0032)
(0.082 0.089 0.0032)
(0.082 0.095 0.0032)
(0.082 0.101 0.0032)
(0.082 0.107 0.0032)
(0.082 0.113 0.0032)
(0.082 0.119 0.0032)
(0.082 0.125 0.0032)
(0.082 0.131 0.0032)
(0.082 0.137 0.0032)
(0.082 0.143 0.0032)
(0.082 0.149 0.0032)
(0.082 0.155 0.0032)
(0.082 0.161 0.0032)
(0.082 0.167 0.0032)
(0.082 0.173 0.0032)
(0.082 0.179 0.0032)
(0.082 0.185 0.0032)
(0.082 0.191 0.0032)
(0.082 0.197 0.0032)
(0.082 0.203 0.0032)
(0.082 0.209 0.0032)
(0.082 0.215 0.0032)
(0.082 0.221 0.0032)
(0.082 0.227 0.0032)
(0.082 0.233 0.0032)
(0.082 0.239 0.0032)
(0.082 0.245 0.0032)
(0.082 0.251 0.0032)
(0.082 0.257 0.0032)
(0.082 0.263 0.0032)
(0.082 0.269 0.0032)
(0.082 0.275 0.0032)
(0.082 0.281 0.0032)
(0.082 0.287 0.0032)
(0.082 0.293 0.0032)
(0.082 0.299 0.0032)
(0.082 0.305 0.0032)
(0.082 0.311 0.0032)
(0.082 0.317 0.0032)
(0.082 0.323 0.0032)
(0.082 0.329 0.0032)
(0.082 0.335 0.0032)
(0.082 0.341 0.0032)
(0.082 0.347 0.0032)
(0.082 0.353 0.0032)
(0.082 0.359 0.0032)
(0.082 0.365 0.0032)
(0.082 0.371 0.0032)
(0.082 0.377 0.0032)
(0.082 0.383 0.0032)
(0.082 0.389 0.0032)
(0.082 0.395 0.0032)
(0.082 0.401 0.0032)
(0.082 0.407 0.0032)
(0.082 0.413 0.0032)
(0.082 0.419 0.0032)
(0.082 0.425 0.0032)
(0.082 0.431 0.0032)
(0.082 0.437 0.0032)
(0.082 0.443 0.0032)
(0.082 0.449 0.0032)
(0.082 0.455 0.0032)
(0.082 0.461 0.0032)
(0.082 0.467 0.0032)
(0.082 0.473 0.0032)
(0.082 0.479 0.0032)
(0.082 0.485 0.0032)
(0.082 0.491 0.0032)
(0.082 0.497 0.0032)
(0.088 0.077 0.0032)
(0.088 0.083 0.0032)
(0.088 0.089 0.0032)
(0.088 0.095 0.0032)
(0.088 0.101 0.0032)
(0.088 0.107 0.0032)
(0.088 0.113 0.0032)
(0.088 0.119 0.0032)
(0.088 0.125 0.0032)
(0.088 0.131 0.0032)
(0.088 0.137 0.0032)
(0.088 0.143 0.0032)
(0.088 0.149 0.0032)
(0.088 0.155 0.0032)
(0.088 0.161 0.0032)
(0.088 0.167 0.0032)
(0.088 0.173 0.0032)
(0.088 0.179 0.0032)
(0.088 0.185 0.0032)
(0.088 0.191 0.0032)
(0.088 0.197 0.0032)
(0.088 0.203 0.0032)
(0.088 0.209 0.0032)
(0.088 0.215 0.0032)
(0.088 0.221 0.0032)
(0.088 0.227 0.0032)
(0.088 0.233 0.0032)
(0.088 0.239 0.0032)
(0.088 0.245 0.0032)
(0.088 0.251 0.0032)
(0.088 0.257 0.0032)
(0.088 0.263 0.0032)
(0.088 0.269 0.0032)
(0.088 0.275 0.0032)
(0.088 0.281 0.0032)
(0.088 0.287 0.0032)
(0.088 0.293 0.0032)
(0.088 0.299 0.0032)
(0.088 0.305 0.0032)
(0.088 0.311 0.0032)
(0.088 0.317 0.0032)
(0.088 0.323 0.0032)
(0.088 0.329 0.0032)
(0.088 0.335 0.0032)
(0.088 0.341 0.0032)
(0.088 0.347 0.0032)
(0.088 0.353 0.0032)
(0.088 0.359 0.0032)
(0.088 0.365 0.0032)
(0.088 0.371 0.0032)
(0.088 0.377 0.0032)
(0.088 0.383 0.0032)
(0.088 0.389 0.0032)
(0.088 0.395 0.0032)
(0.088 0.401 0.0032)
(0.088 0.407 0.0032)
(0.088 0.413 0.0032)
(0.088 0.419 0.0032)
(0.088 0.425 0.0032)
(0.088 0.431 0.0032)
(0.088 0.437 0.0032)
(0.088 0.443 0.0032)
(0.088 0.449 0.0032)
(0.088 0.455 0.0032)
(0.088 0.461 0.0032)
(0.088 0.467 0.0032)
(0.088 0.473 0.0032)
(0.088 0.479 0.0032)
(0.088 0.485 0.0032)
(0.088 0.491 0.0032)
(0.088 0.497 0.0032)
(0.094 0.077 0.0032)
(0.094 0.083 0.0032)
(0.094 0.089 0.0032)
(0.094 0.095 0.0032)
(0.094 0.101 0.0032)
(0.094 0.107 0.0032)
(0.094 0.113 0.0032)
(0.094 0.119 0.0032)
(0.094 0.125 0.0032)
(0.094 0.131 0.0032)
(0.094 0.137 0.0032)
(0.094 0.143 0.0032)
(0.094 0.149 0.0032)
(0.094 0.155 0.0032)
(0.094 0.161 0.0032)
(0.094 0.167 0.0032)
(0.094 0.173 0.0032)
(0.094 0.179 0.0032)
(0.094 0.185 0.0032)
(0.094 0.191 0.0032)
(0.094 0.197 0.0032)
(0.094 0.203 0.0032)
(0.094 0.209 0.0032)
(0.094 0.215 0.0032)
(0.094 0.221 0.0032)
(0.094 0.227 0.0032)
(0.094 0.233 0.0032)
(0.094 0.239 0.0032)
(0.094 0.245 0.0032)
(0.094 0.251 0.0032)
(0.094 0.257 0.0032)
(0.094 0.263 0.0032)
(0.094 0.269 0.0032)
(0.094 0.275 0.0032)
(0.094 0.281 0.0032)
(0.094 0.287 0.0032)
(0.094 0.293 0.0032)
(0.094 0.299 0.0032)
(0.094 0.305 0.0032)
(0.094 0.311 0.0032)
(0.094 0.317 0.0032)
(0.094 0.323 0.0032)
(0.094 0.329 0.0032)
(0.094 0.335 0.0032)
(0.094 0.341 0.0032)
(0.094 0.347 0.0032)
(0.094 0.353 0.0032)
(0.094 0.359 0.0032)
(0.094 0.365 0.0032)
(0.094 0.371 0.0032)
(0.094 0.377 0.0032)
(0.094 0.383 0.0032)
(0.094 0.389 0.0032)
(0.094 0.395 0.0032)
(0.094 0.401 0.0032)
(0.094 0.407 0.0032)
(0.094 0.413 0.0032)
(0.094 0.419 0.0032)
(0.094 0.425 0.0032)
(0.094 0.431 0.0032)
(0.094 0.437 0.0032)
(0.094 0.443 0.0032)
(0.094 0.449 0.0032)
(0.094 0.455 0.0032)
(0.094 0.461 0.0032)
(0.094 0.467 0.0032)
(0.094 0.473 0.0032)
(0.094 0.479 0.0032)
(0.094 0.485 0.0032)
(0.094 0.491 0.0032)
(0.094 0.497 0.0032)
(0.1 0.077 0.0032)
(0.1 0.083 0.0032)
(0.1 0.089 0.0032)
(0.1 0.095 0.0032)
(0.1 0.101 0.0032)
(0.1 0.107 0.0032)
(0.1 0.113 0.0032)
(0.1 0.119 0.0032)
(0.1 0.125 0.0032)
(0.1 0.131 0.0032)
(0.1 0.137 0.0032)
(0.1 0.143 0.0032)
(0.1 0.149 0.0032)
(0.1 0.155 0.0032)
(0.1 0.161 0.0032)
(0.1 0.167 0.0032)
(0.1 0.173 0.0032)
(0.1 0.179 0.0032)
(0.1 0.185 0.0032)
(0.1 0.191 0.0032)
(0.1 0.197 0.0032)
(0.1 0.203 0.0032)
(0.1 0.209 0.0032)
(0.1 0.215 0.0032)
(0.1 0.221 0.0032)
(0.1 0.227 0.0032)
(0.1 0.233 0.0032)
(0.1 0.239 0.0032)
(0.1 0.245 0.0032)
(0.1 0.251 0.0032)
(0.1 0.257 0.0032)
(0.1 0.263 0.0032)
(0.1 0.269 0.0032)
(0.1 0.275 0.0032)
(0.1 0.281 0.0032)
(0.1 0.287 0.0032)
(0.1 0.293 0.0032)
(0.1 0.299 0.0032)
(0.1 0.305 0.0032)
(0.1 0.311 0.0032)
(0.1 0.317 0.0032)
(0.1 0.323 0.0032)
(0.1 0.329 0.0032)
(0.1 0.335 0.0032)
(0.1 0.341 0.0032)
(0.1 0.347 0.0032)
(0.1 0.353 0.0032)
(0.1 0.359 0.0032)
(0.1 0.365 0.0032)
(0.1 0.371 0.0032)
(0.1 0.377 0.0032)
(0.1 0.383 0.0032)
(0.1 0.389 0.0032)
(0.1 0.395 0.0032)
(0.1 0.401 0.0032)
(0.1 0.407 0.0032)
(0.1 0.413 0.0032)
(0.1 0.419 0.0032)
(0.1 0.425 0.0032)
(0.1 0.431 0.0032)
(0.1 0.437 0.0032)
(0.1 0.443 0.0032)
(0.1 0.449 0.0032)
(0.1 0.455 0.0032)
(0.1 0.461 0.0032)
(0.1 0.467 0.0032)
(0.1 0.473 0.0032)
(0.1 0.479 0.0032)
(0.1 0.485 0.0032)
(0.1 0.491 0.0032)
(0.1 0.497 0.0032)
(0.106 0.077 0.0032)
(0.106 0.083 0.0032)
(0.106 0.089 0.0032)
(0.106 0.095 0.0032)
(0.106 0.101 0.0032)
(0.106 0.107 0.0032)
(0.106 0.113 0.0032)
(0.106 0.119 0.0032)
(0.106 0.125 0.0032)
(0.106 0.131 0.0032)
(0.106 0.137 0.0032)
(0.106 0.143 0.0032)
(0.106 0.149 0.0032)
(0.106 0.155 0.0032)
(0.106 0.161 0.0032)
(0.106 0.167 0.0032)
(0.106 0.173 0.0032)
(0.106 0.179 0.0032)
(0.106 0.185 0.0032)
(0.106 0.191 0.0032)
(0.106 0.197 0.0032)
(0.106 0.203 0.0032)
(0.106 0.209 0.0032)
(0.106 0.215 0.0032)
(0.106 0.221 0.0032)
(0.106 0.227 0.0032)
(0.106 0.233 0.0032)
(0.106 0.239 0.0032)
(0.106 0.245 0.0032)
(0.106 0.251 0.0032)
(0.106 0.257 0.0032)
(0.106 0.263 0.0032)
(0.106 0.269 0.0032)
(0.106 0.275 0.0032)
(0.106 0.281 0.0032)
(0.106 0.287 0.0032)
(0.106 0.293 0.0032)
(0.106 0.299 0.0032)
(0.106 0.305 0.0032)
(0.106 0.311 0.0032)
(0.106 0.317 0.0032)
(0.106 0.323 0.0032)
(0.106 0.329 0.0032)
(0.106 0.335 0.0032)
(0.106 0.341 0.0032)
(0.106 0.347 0.0032)
(0.106 0.353 0.0032)
(0.106 0.359 0.0032)
(0.106 0.365 0.0032)
(0.106 0.371 0.0032)
(0.106 0.377 0.0032)
(0.106 0.383 0.0032)
(0.106 0.389 0.0032)
(0.106 0.395 0.0032)
(0.106 0.401 0.0032)
(0.106 0.407 0.0032)
(0.106 0.413 0.0032)
(0.106 0.419 0.0032)
(0.106 0.425 0.0032)
(0.106 0.431 0.0032)
(0.106 0.437 0.0032)
(0.106 0.443 0.0032)
(0.106 0.449 0.0032)
(0.106 0.455 0.0032)
(0.106 0.461 0.0032)
(0.106 0.467 0.0032)
(0.106 0.473 0.0032)
(0.106 0.479 0.0032)
(0.106 0.485 0.0032)
(0.106 0.491 0.0032)
(0.106 0.497 0.0032)
(0.112 0.077 0.0032)
(0.112 0.083 0.0032)
(0.112 0.089 0.0032)
(0.112 0.095 0.0032)
(0.112 0.101 0.0032)
(0.112 0.107 0.0032)
(0.112 0.113 0.0032)
(0.112 0.119 0.0032)
(0.112 0.125 0.0032)
(0.112 0.131 0.0032)
(0.112 0.137 0.0032)
(0.112 0.143 0.0032)
(0.112 0.149 0.0032)
(0.112 0.155 0.0032)
(0.112 0.161 0.0032)
(0.112 0.167 0.0032)
(0.112 0.173 0.0032)
(0.112 0.179 0.0032)
(0.112 0.185 0.0032)
(0.112 0.191 0.0032)
(0.112 0.197 0.0032)
(0.112 0.203 0.0032)
(0.112 0.209 0.0032)
(0.112 0.215 0.0032)
(0.112 0.221 0.0032)
(0.112 0.227 0.0032)
(0.112 0.233 0.0032)
(0.112 0.239 0.0032)
(0.112 0.245 0.0032)
(0.112 0.251 0.0032)
(0.112 0.257 0.0032)
(0.112 0.263 0.0032)
(0.112 0.269 0.0032)
(0.112 0.275 0.0032)
(0.112 0.281 0.0032)
(0.112 0.287 0.0032)
(0.112 0.293 0.0032)
(0.112 0.299 0.0032)
(0.112 0.305 0.0032)
(0.112 0.311 0.0032)
(0.112 0.317 0.0032)
(0.112 0.323 0.0032)
(0.112 0.329 0.0032)
(0.112 0.335 0.0032)
(0.112 0.341 0.0032)
(0.112 0.347 0.0032)
(0.112 0.353 0.0032)
(0.112 0.359 0.0032)
(0.112 0.365 0.0032)
(0.112 0.371 0.0032)
(0.112 0.377 0.0032)
(0.112 0.383 0.0032)
(0.112 0.389 0.0032)
(0.112 0.395 0.0032)
(0.112 0.401 0.0032)
(0.112 0.407 0.0032)
(0.112 0.413 0.0032)
(0.112 0.419 0.0032)
(0.112 0.425 0.0032)
(0.112 0.431 0.0032)
(0.112 0.437 0.0032)
(0.112 0.443 0.0032)
(0.112 0.449 0.0032)
(0.112 0.455 0.0032)
(0.112 0.461 0.0032)
(0.112 0.467 0.0032)
(0.112 0.473 0.0032)
(0.112 0.479 0.0032)
(0.112 0.485 0.0032)
(0.112 0.491 0.0032)
(0.112 0.497 0.0032)
(0.118 0.077 0.0032)
(0.118 0.083 0.0032)
(0.118 0.089 0.0032)
(0.118 0.095 0.0032)
(0.118 0.101 0.0032)
(0.118 0.107 0.0032)
(0.118 0.113 0.0032)
(0.118 0.119 0.0032)
(0.118 0.125 0.0032)
(0.118 0.131 0.0032)
(0.118 0.137 0.0032)
(0.118 0.143 0.0032)
(0.118 0.149 0.0032)
(0.118 0.155 0.0032)
(0.118 0.161 0.0032)
(0.118 0.167 0.0032)
(0.118 0.173 0.0032)
(0.118 0.179 0.0032)
(0.118 0.185 0.0032)
(0.118 0.191 0.0032)
(0.118 0.197 0.0032)
(0.118 0.203 0.0032)
(0.118 0.209 0.0032)
(0.118 0.215 0.0032)
(0.118 0.221 0.0032)
(0.118 0.227 0.0032)
(0.118 0.233 0.0032)
(0.118 0.239 0.0032)
(0.118 0.245 0.0032)
(0.118 0.251 0.0032)
(0.118 0.257 0.0032)
(0.118 0.263 0.0032)
(0.118 0.269 0.0032)
(0.118 0.275 0.0032)
(0.118 0.281 0.0032)
(0.118 0.287 0.0032)
(0.118 0.293 0.0032)
(0.118 0.299 0.0032)
(0.118 0.305 0.0032)
(0.118 0.311 0.0032)
(0.118 0.317 0.0032)
(0.118 0.323 0.0032)
(0.118 0.329 0.0032)
(0.118 0.335 0.0032)
(0.118 0.341 0.0032)
(0.118 0.347 0.0032)
(0.118 0.353 0.0032)
(0.118 0.359 0.0032)
(0.118 0.365 0.0032)
(0.118 0.371 0.0032)
(0.118 0.377 0.0032)
(0.118 0.383 0.0032)
(0.118 0.389 0.0032)
(0.118 0.395 0.0032)
(0.118 0.401 0.0032)
(0.118 0.407 0.0032)
(0.118 0.413 0.0032)
(0.118 0.419 0.0032)
(0.118 0.425 0.0032)
(0.118 0.431 0.0032)
(0.118 0.437 0.0032)
(0.118 0.443 0.0032)
(0.118 0.449 0.0032)
(0.118 0.455 0.0032)
(0.118 0.461 0.0032)
(0.118 0.467 0.0032)
(0.118 0.473 0.0032)
(0.118 0.479 0.0032)
(0.118 0.485 0.0032)
(0.118 0.491 0.0032)
(0.118 0.497 0.0032)
(0.124 0.077 0.0032)
(0.124 0.083 0.0032)
(0.124 0.089 0.0032)
(0.124 0.095 0.0032)
(0.124 0.101 0.0032)
(0.124 0.107 0.0032)
(0.124 0.113 0.0032)
(0.124 0.119 0.0032)
(0.124 0.125 0.0032)
(0.124 0.131 0.0032)
(0.124 0.137 0.0032)
(0.124 0.143 0.0032)
(0.124 0.149 0.0032)
(0.124 0.155 0.0032)
(0.124 0.161 0.0032)
(0.124 0.167 0.0032)
(0.124 0.173 0.0032)
(0.124 0.179 0.0032)
(0.124 0.185 0.0032)
(0.124 0.191 0.0032)
(0.124 0.197 0.0032)
(0.124 0.203 0.0032)
(0.124 0.209 0.0032)
(0.124 0.215 0.0032)
(0.124 0.221 0.0032)
(0.124 0.227 0.0032)
(0.124 0.233 0.0032)
(0.124 0.239 0.0032)
(0.124 0.245 0.0032)
(0.124 0.251 0.0032)
(0.124 0.257 0.0032)
(0.124 0.263 0.0032)
(0.124 0.269 0.0032)
(0.124 0.275 0.0032)
(0.124 0.281 0.0032)
(0.124 0.287 0.0032)
(0.124 0.293 0.0032)
(0.124 0.299 0.0032)
(0.124 0.305 0.0032)
(0.124 0.311 0.0032)
(0.124 0.317 0.0032)
(0.124 0.323 0.0032)
(0.124 0.329 0.0032)
(0.124 0.335 0.0032)
(0.124 0.341 0.0032)
(0.124 0.347 0.0032)
(0.124 0.353 0.0032)
(0.124 0.359 0.0032)
(0.124 0.365 0.0032)
(0.124 0.371 0.0032)
(0.124 0.377 0.0032)
(0.124 0.383 0.0032)
(0.124 0.389 0.0032)
(0.124 0.395 0.0032)
(0.124 0.401 0.0032)
(0.124 0.407 0.0032)
(0.124 0.413 0.0032)
(0.124 0.419 0.0032)
(0.124 0.425 0.0032)
(0.124 0.431 0.0032)
(0.124 0.437 0.0032)
(0.124 0.443 0.0032)
(0.124 0.449 0.0032)
(0.124 0.455 0.0032)
(0.124 0.461 0.0032)
(0.124 0.467 0.0032)
(0.124 0.473 0.0032)
(0.124 0.479 0.0032)
(0.124 0.485 0.0032)
(0.124 0.491 0.0032)
(0.124 0.497 0.0032)
(0.13 0.077 0.0032)
(0.13 0.083 0.0032)
(0.13 0.089 0.0032)
(0.13 0.095 0.0032)
(0.13 0.101 0.0032)
(0.13 0.107 0.0032)
(0.13 0.113 0.0032)
(0.13 0.119 0.0032)
(0.13 0.125 0.0032)
(0.13 0.131 0.0032)
(0.13 0.137 0.0032)
(0.13 0.143 0.0032)
(0.13 0.149 0.0032)
(0.13 0.155 0.0032)
(0.13 0.161 0.0032)
(0.13 0.167 0.0032)
(0.13 0.173 0.0032)
(0.13 0.179 0.0032)
(0.13 0.185 0.0032)
(0.13 0.191 0.0032)
(0.13 0.197 0.0032)
(0.13 0.203 0.0032)
(0.13 0.209 0.0032)
(0.13 0.215 0.0032)
(0.13 0.221 0.0032)
(0.13 0.227 0.0032)
(0.13 0.233 0.0032)
(0.13 0.239 0.0032)
(0.13 0.245 0.0032)
(0.13 0.251 0.0032)
(0.13 0.257 0.0032)
(0.13 0.263 0.0032)
(0.13 0.269 0.0032)
(0.13 0.275 0.0032)
(0.13 0.281 0.0032)