/*--------------------------------*- C++ -*----------------------------------*\
  =========                 |
  \\      /  F ield         | OpenFOAM: The Open Source CFD Toolbox
   \\    /   O peration     | Website:  https://openfoam.org
    \\  /    A nd           | Version:  dev
     \\/     M anipulation  |
\*---------------------------------------------------------------------------*/
FoamFile
{
    format      ascii;
    class       dictionary;
    object      collapseDict;
}
// * * * * * * * * * * * * * * * * * * * * * * * * * * * * * * * * * * * * * //

collapseEdgesCoeffs
{
    // Edges shorter than this absolute value will be merged
    minimumEdgeLength   2e-7;

    // The maximum angle between two edges that share a point attached to
    // no other edges
    maximumMergeAngle   5;
}


// ************************************************************************* //
