/*--------------------------------*- C++ -*----------------------------------*\
| =========                 |                                                 |
| \\      /  F ield         | OpenFOAM: The Open Source CFD Toolbox           |
|  \\    /   O peration     | Version:  dev                                   |
|   \\  /    A nd           | Web:      www.OpenFOAM.org                      |
|    \\/     M anipulation  |                                                 |
\*---------------------------------------------------------------------------*/
FoamFile
{
    version     2.0;
    format      ascii;
    class       dictionary;
    location    "constant";
    object      dynamicMeshDict;
}
// * * * * * * * * * * * * * * * * * * * * * * * * * * * * * * * * * * * * * //

#include "${FOAM_CASE}/constant/caseSettings"

dynamicFvMesh   dynamicMotionSolverFvMesh;

solver solidBody;

solidBodyCoeffs
{
    cellZone        rotatingZone;

    solidBodyMotionFunction  rotatingMotion;
    rotatingMotionCoeffs
    {
        origin      (0 0 0);
        axis        (0 0 1);
        omega       $:meshMotionProperties.omega;
    }
}

// ************************************************************************* //
