/*--------------------------------*- C++ -*----------------------------------*\
  =========                 |
  \\      /  F ield         | OpenFOAM: The Open Source CFD Toolbox
   \\    /   O peration     | Website:  https://openfoam.org
    \\  /    A nd           | Version:  dev
     \\/     M anipulation  |
\*---------------------------------------------------------------------------*/
FoamFile
{
    format      ascii;
    class       dictionary;
    location    "system";
    object      blockMeshDict;
}

// * * * * * * * * * * * * * * * * * * * * * * * * * * * * * * * * * * * * * //

convertToMeters 1;

vertices
(
    (0 -300 -10)
    (1200 -300 -10)
    (1200 300 -10)
    (0 300 -10)
    (0 -300 10)
    (1200 -300 10)
    (1200 300 10)
    (0 300 10)
);

blocks
(
    hex (0 1 2 3 4 5 6 7) (67 40 1) simpleGrading (1 1 1)
);

edges
(
);

defaultPatch
{
    name frontAndBack;
    type empty;
}

boundary
(
    left
    {
        type patch;
        faces
        (
            (0 4 7 3)
        );
    }
    right
    {
        type patch;
        faces
        (
            (2 6 5 1)
        );
    }
    bottom
    {
        type wall;
        faces
        (
            (0 1 5 4)
        );
    }
    top
    {
        type patch;
        faces
        (
            (2 3 7 6)
        );
    }
);

mergePatchPairs
(
);

// ************************************************************************* //
