/*--------------------------------*- C++ -*----------------------------------*\
  =========                 |
  \\      /  F ield         | OpenFOAM: The Open Source CFD Toolbox
   \\    /   O peration     | Website:  https://openfoam.org
    \\  /    A nd           | Version:  dev
     \\/     M anipulation  |
\*---------------------------------------------------------------------------*/
FoamFile
{
    version     2.0;
    format      ascii;
    class       dictionary;
    location    "system";
    object      refineMeshDict;
}
// * * * * * * * * * * * * * * * * * * * * * * * * * * * * * * * * * * * * * //

set box;

coordinateSystem global;

globalCoeffs
{
    tan1 (1 0 0);
    tan2 (0 1 0);
}

directions
(
    tan2
);

useHexTopology  true;

geometricCut    false;

writeMesh       false;


// ************************************************************************* //
