/*--------------------------------*- C++ -*----------------------------------*\
  =========                 |
  \\      /  F ield         | OpenFOAM: The Open Source CFD Toolbox
   \\    /   O peration     | Website:  https://openfoam.org
    \\  /    A nd           | Version:  dev
     \\/     M anipulation  |
\*---------------------------------------------------------------------------*/
FoamFile
{
    format      ascii;
    class       dictionary;
    location    "constant";
    object      combustionProperties;
}
// * * * * * * * * * * * * * * * * * * * * * * * * * * * * * * * * * * * * * //

#include        "combustionPropertiesInclude"

flameWrinkling
{
    model           transport;

    equilibrium
    {
        model           Gulder;
    }

    generationRate
    {
        model           KTS;
    }
}

ignite          yes;

ignitionSites
(
    {
        location        (0 0 0.0005);
        diameter        0.003;
        start           0;
        duration        0.003;
        strength        2;
    }
);

ignitionSphereFraction 1;

ignitionThickness ignitionThickness [0 1 0 0 0 0 0] 0.001;

ignitionCircleFraction 0.5;

ignitionKernelArea ignitionKernelArea [0 2 0 0 0 0 0] 0.001;


// ************************************************************************* //
