/*--------------------------------*- C++ -*----------------------------------*\
  =========                 |
  \\      /  F ield         | OpenFOAM: The Open Source CFD Toolbox
   \\    /   O peration     | Website:  https://openfoam.org
    \\  /    A nd           | Version:  dev
     \\/     M anipulation  |
\*---------------------------------------------------------------------------*/
FoamFile
{
    format      ascii;
    class       dictionary;
    location    "constant";
    object      combustionProperties;
}
// * * * * * * * * * * * * * * * * * * * * * * * * * * * * * * * * * * * * * //

#include        "combustionPropertiesInclude"

flameWrinkling
{
    model           transport;

    equilibrium
    {
        model           Gulder;
    }

    profile
    {
        model      linear;
    }

    generationRate
    {
        model           KTS;
    }
}


// ************************************************************************* //
