/*--------------------------------*- C++ -*----------------------------------*\
  =========                 |
  \\      /  F ield         | OpenFOAM: The Open Source CFD Toolbox
   \\    /   O peration     | Website:  https://openfoam.org
    \\  /    A nd           | Version:  dev
     \\/     M anipulation  |
\*---------------------------------------------------------------------------*/
FoamFile
{
    version     2.0;
    format      ascii;
    class       dictionary;
    location    "constant";
    object      chemistryProperties;
}
// * * * * * * * * * * * * * * * * * * * * * * * * * * * * * * * * * * * * * //

chemistryType
{
    chemistrySolver   ode;
    chemistryThermo   pyrolysis;
}

chemistry           on;

initialChemicalTimeStep 1e-07;

odeCoeffs
{
    solver          seulex;
    absTol          1e-8;
    relTol          0.01;
}


// ************************************************************************* //
