/*--------------------------------*- C++ -*----------------------------------*\
  =========                 |
  \\      /  F ield         | OpenFOAM: The Open Source CFD Toolbox
   \\    /   O peration     | Website:  https://openfoam.org
    \\  /    A nd           | Version:  dev
     \\/     M anipulation  |
\*---------------------------------------------------------------------------*/
FoamFile
{
    format      ascii;
    class       dictionary;
    object      blockMeshDict;
}
// * * * * * * * * * * * * * * * * * * * * * * * * * * * * * * * * * * * * * //

convertToMeters 1;

vertices
(
    (-1 -1 -1)
    (1 -1 -1)
    (1 1 -1)
    (-1 1 -1)

    (-1 -1 1)
    (1 -1 1)
    (1 1 1)
    (-1 1 1)
);

blocks
(
    hex (0 1 2 3 4 5 6 7) (1 1 1) simpleGrading (1 1 1)
);

defaultPatch
{
    name defaultPatch;
    type empty;
}

boundary
(
);


// ************************************************************************* //
