/*--------------------------------*- C++ -*----------------------------------*\
| =========                 |                                                 |
| \\      /  F ield         | OpenFOAM: The Open Source CFD Toolbox           |
|  \\    /   O peration     | Version:  dev                                   |
|   \\  /    A nd           | Website:  https://openfoam.org                  |
|    \\/     M anipulation  |                                                 |
\*---------------------------------------------------------------------------*/
FoamFile
{
    version     2.0;
    format      ascii;
    class       dictionary;
    location    "constant";
    object      moleculeProperties;
}
// * * * * * * * * * * * * * * * * * * * * * * * * * * * * * * * * * * * * * //

Ar
{
    siteIds                     (Ar);
    pairPotentialSiteIds        (Ar);
    siteReferencePositions
    (
        (0 0 0)
    );
    siteMasses
    (
        6.63352033e-26
    );
    siteCharges
    (
        0
    );
}

// ************************************************************************* //
