/*--------------------------------*- C++ -*----------------------------------*\
  =========                 |
  \\      /  F ield         | OpenFOAM: The Open Source CFD Toolbox
   \\    /   O peration     | Website:  https://openfoam.org
    \\  /    A nd           | Version:  dev
     \\/     M anipulation  |
\*---------------------------------------------------------------------------*/
FoamFile
{
    format      ascii;
    class       dictionary;
    location    "constant";
    object      moleculeProperties;
}
// * * * * * * * * * * * * * * * * * * * * * * * * * * * * * * * * * * * * * //

Ar
{
    siteIds                     (Ar);
    pairPotentialSiteIds        (Ar);
    siteReferencePositions
    (
        (0 0 0)
    );
    siteMasses
    (
        6.63352033e-26
    );
    siteCharges
    (
        0
    );
}

// ************************************************************************* //
