/*--------------------------------*- C++ -*----------------------------------*\
  =========                 |
  \\      /  F ield         | OpenFOAM: The Open Source CFD Toolbox
   \\    /   O peration     | Website:  https://openfoam.org
    \\  /    A nd           | Version:  dev
     \\/     M anipulation  |
\*---------------------------------------------------------------------------*/
FoamFile
{
    format      ascii;
    class       dictionary;
    location    "system";
    object      fvSolution;
}
// * * * * * * * * * * * * * * * * * * * * * * * * * * * * * * * * * * * * * //

solvers
{
    "pcorr.*"
    {
        solver          GAMG;
        smoother        GaussSeidel;
        cacheAgglomeration no;
        tolerance       0.02;
        relTol          0;
    }

    p
    {
        $pcorr;
        tolerance       1e-6;
        relTol          0.01;
    }

    pFinal
    {
        $p;
        tolerance       1e-6;
        relTol          0;
    }

    U
    {
        solver          smoothSolver;
        smoother        GaussSeidel;
        tolerance       1e-5;
        relTol          0.01;
    }

    UFinal
    {
        $U;
        tolerance       1e-6;
        relTol          0;
    }

    cellMotionUx
    {
        solver          PCG;
        preconditioner  DIC;
        tolerance       1e-8;
        relTol          0;
    }
}

PIMPLE
{
    nOuterCorrectors    2;
    nCorrectors         1;
    nNonOrthogonalCorrectors 0;

    correctPhi          yes;
    correctMeshPhi      no;

    pRefCell            0;
    pRefValue           0;
}

relaxationFactors
{
    equations
    {
        ".*"            1;
    }
}

// ************************************************************************* //
