/*--------------------------------*- C++ -*----------------------------------*\
  =========                 |
  \\      /  F ield         | OpenFOAM: The Open Source CFD Toolbox
   \\    /   O peration     | Website:  https://openfoam.org
    \\  /    A nd           | Version:  dev
     \\/     M anipulation  |
\*---------------------------------------------------------------------------*/
FoamFile
{
    format      ascii;
    class       volScalarField;
    location    "0/fluid";
    object      p_rgh;
}
// * * * * * * * * * * * * * * * * * * * * * * * * * * * * * * * * * * * * * //

dimensions      [pressure];

internalField   uniform 1e5;

boundaryField
{
    inlet
    {
        type            fixedFluxPressure;
        value           $internalField;
    }

    outlet
    {
        type            zeroGradient;
    }

    top
    {
        type            prghTotalPressure;
        p0              $internalField;
    }

    bottom
    {
        type            fixedFluxPressure;
    }

    wall
    {
        type            fixedFluxPressure;
        value           $internalField;
    }

    #includeEtc "caseDicts/setConstraintTypes"
}


// ************************************************************************* //
