/*--------------------------------*- C++ -*----------------------------------*\
  =========                 |
  \\      /  F ield         | OpenFOAM: The Open Source CFD Toolbox
   \\    /   O peration     | Website:  https://openfoam.org
    \\  /    A nd           | Version:  dev
     \\/     M anipulation  |
\*---------------------------------------------------------------------------*/
FoamFile
{
    format      ascii;
    class       dictionary;
    object      createPatchDict;
}
// * * * * * * * * * * * * * * * * * * * * * * * * * * * * * * * * * * * * * //

patches
(
    {
        // Name of new patch
        name    inlet;

        // Dictionary to construct new patch from
        patchInfo
        {
            type    patch;
        }

        // How to construct: either from 'patches' or 'zone'
        constructFrom zone;

        // Generate zone
        zone
        {
            type        box;
            box         (-0.035 -0.1 -1e-5)(0.035 0.1 1e-5);
        }
    }

    {
        // Name of new patch
        name    walls;

        // Dictionary to construct new patch from
        patchInfo
        {
            type    wall;
        }

        // How to construct: either from 'patches' or 'set'
        constructFrom patches;

        // If constructFrom = patches : names of patches. Wildcards allowed.
        patches ("CAD.*");
    }
);

// ************************************************************************* //
