/*--------------------------------*- C++ -*----------------------------------*\
  =========                 |
  \\      /  F ield         | OpenFOAM: The Open Source CFD Toolbox
   \\    /   O peration     | Website:  https://openfoam.org
    \\  /    A nd           | Version:  dev
     \\/     M anipulation  |
\*---------------------------------------------------------------------------*/
FoamFile
{
    format      ascii;
    class       dictionary;
    object      createPatchDict;
}
// * * * * * * * * * * * * * * * * * * * * * * * * * * * * * * * * * * * * * //

pointSync   false;

patches
(
    {
        name    inlet;
        patchInfo
        {
            type    patch;
        }
        constructFrom set;
        set     inletFaces;
    }

    {
        name    walls;
        patchInfo
        {
            type    wall;
        }
        constructFrom patches;
        patches ("CAD.*");
    }
);

// ************************************************************************* //
