/*--------------------------------*- C++ -*----------------------------------*\
  =========                 |
  \\      /  F ield         | OpenFOAM: The Open Source CFD Toolbox
   \\    /   O peration     | Website:  https://openfoam.org
    \\  /    A nd           | Version:  dev
     \\/     M anipulation  |
\*---------------------------------------------------------------------------*/
FoamFile
{
    format      ascii;
    class       dictionary;
    object      createBafflesDict;
}
// * * * * * * * * * * * * * * * * * * * * * * * * * * * * * * * * * * * * * //

internalFacesOnly true;

baffles
{
    nonCouple
    {
        type        faceZone;
        zoneName    couple;

        owner
        {
            name        nonCouple1;
            type        patch;
        }

        neighbour
        {
            name        nonCouple2;
            type        patch;
        }
    }
}

// ************************************************************************* //
