/*--------------------------------*- C++ -*----------------------------------*\
  =========                 |
  \\      /  F ield         | OpenFOAM: The Open Source CFD Toolbox
   \\    /   O peration     | Website:  https://openfoam.org
    \\  /    A nd           | Version:  dev
     \\/     M anipulation  |
\*---------------------------------------------------------------------------*/
FoamFile
{
    version     2.0;
    format      ascii;
    class       dictionary;
    object      fvSchemes;
}
// * * * * * * * * * * * * * * * * * * * * * * * * * * * * * * * * * * * * * //

ddtSchemes
{
    default         steadyState;
}

gradSchemes
{
    default         Gauss linear;
}

divSchemes
{
    default             none;

    div(phi,U)          bounded Gauss upwind;
    div(phi,h)          bounded Gauss upwind;
    div(phi,e)          bounded Gauss upwind;
    div(phi,(p|rho))    bounded Gauss upwind;
    div(phi,K)          bounded Gauss upwind;
    div(phi,k)          bounded Gauss upwind;
    div(phi,epsilon)    bounded Gauss upwind;

    div(((rho*nuEff)*dev2(T(grad(U))))) Gauss linear;
}

laplacianSchemes
{
    default         Gauss linear uncorrected;
}

interpolationSchemes
{
    default         linear;
}

snGradSchemes
{
    default         uncorrected;
}

// ************************************************************************* //
