/*--------------------------------*- C++ -*----------------------------------*\
  =========                 |
  \\      /  F ield         | OpenFOAM: The Open Source CFD Toolbox
   \\    /   O peration     | Website:  https://openfoam.org
    \\  /    A nd           | Version:  dev
     \\/     M anipulation  |
\*---------------------------------------------------------------------------*/
FoamFile
{
    version     2.0;
    format      ascii;
    class       volScalarField;
    location    "0/solid";
    object      T;
}
// * * * * * * * * * * * * * * * * * * * * * * * * * * * * * * * * * * * * * //

dimensions      [ 0 0 0 1 0 0 0 ];

internalField   uniform 300;

boundaryField
{
    #includeEtc "caseDicts/setConstraintTypes"

    external
    {
        type            externalWallHeatFluxTemperature;
        kappaMethod     solidThermo;
        mode            coefficient;
        h               uniform 1e3;
        Ta              $internalField;
        value           $internalField;
    }
    solid_to_gas
    {
        type            compressible::turbulentTemperatureRadCoupledMixed;
        value           $internalField;
        Tnbr            T;
        kappaMethod     solidThermo;
        qrNbr           qr;
        qr              none;
    }
}


// ************************************************************************* //
