/*--------------------------------*- C++ -*----------------------------------*\
  =========                 |
  \\      /  F ield         | OpenFOAM: The Open Source CFD Toolbox
   \\    /   O peration     | Website:  https://openfoam.org
    \\  /    A nd           | Version:  dev
     \\/     M anipulation  |
\*---------------------------------------------------------------------------*/
FoamFile
{
    format      ascii;
    class       volScalarField;
    location    "0";
    object      epsilon;
}
// * * * * * * * * * * * * * * * * * * * * * * * * * * * * * * * * * * * * * //

dimensions      [turbulentEpsilon];

internalField   uniform 0.00754;

boundaryField
{
    movingWall
    {
        type            epsilonWallFunction;
        value           uniform 0.00754;
    }
    fixedWalls
    {
        type            epsilonWallFunction;
        value           uniform 0.00754;
    }
    frontAndBack
    {
        type            empty;
    }
}


// ************************************************************************* //
