/*--------------------------------*- C++ -*----------------------------------*\
  =========                 |
  \\      /  F ield         | OpenFOAM: The Open Source CFD Toolbox
   \\    /   O peration     | Website:  https://openfoam.org
    \\  /    A nd           | Version:  dev
     \\/     M anipulation  |
\*---------------------------------------------------------------------------*/
FoamFile
{
    format      ascii;
    class       volScalarField;
    location    "0";
    object      alpha.water;
}
// * * * * * * * * * * * * * * * * * * * * * * * * * * * * * * * * * * * * * //

dimensions      [];

internalField   uniform 0;

boundaryField
{
    leftWall
    {
        type            alphaContactAngle;
        contactAngleProperties
        {
            air             { theta0 90; }
            oil             { theta0 90; }
            mercury         { theta0 90; }
        }
        value           $internalField;
    }

    rightWall
    {
        type            alphaContactAngle;
        contactAngleProperties
        {
            air             { theta0 90; }
            oil             { theta0 90; }
            mercury         { theta0 90; }
        }
        value           $internalField;
    }

    lowerWall
    {
        type            alphaContactAngle;
        contactAngleProperties
        {
            air             { theta0 90; }
            oil             { theta0 90; }
            mercury         { theta0 90; }
        }
        value           $internalField;
    }

    atmosphere
    {
        type            inletOutlet;
        phi             phi.water;
        inletValue      uniform 0;
        value           uniform 0;
    }

    defaultFaces
    {
        type            empty;
    }
}


// ************************************************************************* //
