/*--------------------------------*- C++ -*----------------------------------*\
| =========                 |                                                 |
| \\      /  F ield         | OpenFOAM: The Open Source CFD Toolbox           |
|  \\    /   O peration     | Version:  dev                                   |
|   \\  /    A nd           | Website:  https://openfoam.org                  |
|    \\/     M anipulation  |                                                 |
\*---------------------------------------------------------------------------*/
FoamFile
{
    version     2.0;
    format      ascii;
    class       dictionary;
    location    "system";
    object      controlDict;
}
// * * * * * * * * * * * * * * * * * * * * * * * * * * * * * * * * * * * * * //

application     potentialFreeSurfaceDyMFoam;

startFrom       startTime;

startTime       0;

stopAt          endTime;

endTime         20;

deltaT          0.001;

writeControl    adjustableRunTime;

writeInterval   0.02;

purgeWrite      0;

writeFormat     binary;

writePrecision  6;

writeCompression off;

timeFormat      general;

timePrecision   6;

runTimeModifiable yes;

adjustTimeStep  yes;

maxCo           0.4;

maxDeltaT       1;

functions
{
    forces
    {
        type            forces;
        libs            ("libforces.so");
        writeControl    writeTime;
        patches         (floatingObject);
        rho             rhoInf;
        log             yes;
        rhoInf          1000;
        CofR            (0 0 0);
    }

    poolHeight
    {
        type            surfaceFieldValue;
        libs            ("libfieldFunctionObjects.so");
        writeControl   timeStep;
        writeInterval  1;
        log             yes;
        writeTotalArea  no;
        writeFields     no;
        regionType      faceZone;
        name            f0;
        operation       areaAverage;
        fields
        (
            zeta
        );
    }
};

// ************************************************************************* //
