/*--------------------------------*- C++ -*----------------------------------*\
  =========                 |
  \\      /  F ield         | OpenFOAM: The Open Source CFD Toolbox
   \\    /   O peration     | Website:  https://openfoam.org
    \\  /    A nd           | Version:  dev
     \\/     M anipulation  |
\*---------------------------------------------------------------------------*/
FoamFile
{
    format      ascii;
    class       volScalarField;
    location    "0";
    object      O2;
}
// * * * * * * * * * * * * * * * * * * * * * * * * * * * * * * * * * * * * * //

dimensions      [];

internalField   uniform 0.23;

boundaryField
{
    film
    {
        type            zeroGradient;
    }

    "(sides|frontAndBack)"
    {
        type            zeroGradient;
    }

    top
    {
        type            inletOutlet;
        inletValue      $internalField;
    }
}

// ************************************************************************* //
