/*--------------------------------*- C++ -*----------------------------------*\
  =========                 |
  \\      /  F ield         | OpenFOAM: The Open Source CFD Toolbox
   \\    /   O peration     | Website:  https://openfoam.org
    \\  /    A nd           | Version:  dev
     \\/     M anipulation  |
-------------------------------------------------------------------------------
Reference:
    Bui-Pham, M. N. (1992).
    Studies in structures of lam inar hydrocarbon flames.
    PhD Thesis, University of California, San Diego

Notes:
    This mechanism was developed for simulating this exact counter-flow flame
    configuration. It should not be considered general-purpose.

\*---------------------------------------------------------------------------*/
FoamFile
{
    version     2.0;
    format      ascii;
    class       dictionary;
    location    "constant";
    object      reactions;
}
// * * * * * * * * * * * * * * * * * * * * * * * * * * * * * * * * * * * * * //

species
(
    O2
    H2O
    CH4
    CO2
    N2
);

reactions
{
    methaneReaction
    {
        type     irreversibleArrheniusReaction;
        reaction "CH4 + 2O2 = CO2 + 2H2O";
        A        5.2e16;
        beta     0;
        Ta       14906;
    }
}


// ************************************************************************* //
