/*--------------------------------*- C++ -*----------------------------------*\
  =========                 |
  \\      /  F ield         | OpenFOAM: The Open Source CFD Toolbox
   \\    /   O peration     | Website:  https://openfoam.org
    \\  /    A nd           | Version:  dev
     \\/     M anipulation  |
\*---------------------------------------------------------------------------*/
FoamFile
{
    format      ascii;
    class       dictionary;
    location    "constant";
    object      phaseProperties;
}
// * * * * * * * * * * * * * * * * * * * * * * * * * * * * * * * * * * * * * //

phases  (gas liquid);

referencePhase  liquid;

gas
{
    type            pureIsothermalPhaseModel;

    diameterModel   constant;
    constantCoeffs
    {
        d           1e-3;
    }

    residualAlpha   1e-6;
}

liquid
{
    type            pureIsothermalPhaseModel;

    diameterModel   constant;
    constantCoeffs
    {
        d           1e-4;
    }

    residualAlpha   1e-6;
}

blending
{
    default
    {
        type            linear;
        minFullyContinuousAlpha.gas 0.7;
        minPartlyContinuousAlpha.gas 0.3;
        minFullyContinuousAlpha.liquid 0.7;
        minPartlyContinuousAlpha.liquid 0.3;
    }

    segregated
    {
        type            linear;
        minFullyContinuousAlpha.gas 0.7;
        minPartlyContinuousAlpha.gas 0.5;
        minFullyContinuousAlpha.liquid 0.7;
        minPartlyContinuousAlpha.liquid 0.5;
    }
}

surfaceTension
{
    gas_liquid
    {
        type            constant;
        sigma           0.072;
    }
}

// ************************************************************************* //
