/*--------------------------------*- C++ -*----------------------------------*\
  =========                 |
  \\      /  F ield         | OpenFOAM: The Open Source CFD Toolbox
   \\    /   O peration     | Website:  https://openfoam.org
    \\  /    A nd           | Version:  dev
     \\/     M anipulation  |
\*---------------------------------------------------------------------------*/
FoamFile
{
    format      ascii;
    class       dictionary;
    object      createBafflesDict;
}
// * * * * * * * * * * * * * * * * * * * * * * * * * * * * * * * * * * * * * //

// Whether to convert internal faces only (so leave boundary faces intact).
// This is only relevant if your face selection type can pick up boundary
// faces.
internalFacesOnly true;

// Example creating two opposing patches named "nonCouple1" and "nonCouple2",
// both of which are included in the "nonCouple" group. These patches can then
// be coupled afterwards by calling "createNonConformalCouples -overwrite
// nonCouple1 nonCouple2".
baffles
{
    rotating
    {
        type        faceZone;
        zoneName    rotatingZone;

        patches
        {
            master
            {
                name            nonCouple1;
                type            patch;
                inGroups        (nonCouple);
            }
            slave
            {
                name            nonCouple2;
                type            patch;
                inGroups        (nonCouple);
            }
        }
    }
}

// ************************************************************************* //
