/*--------------------------------*- C++ -*----------------------------------*\
  =========                 |
  \\      /  F ield         | OpenFOAM: The Open Source CFD Toolbox
   \\    /   O peration     | Website:  https://openfoam.org
    \\  /    A nd           | Version:  dev
     \\/     M anipulation  |
\*---------------------------------------------------------------------------*/
FoamFile
{
    format      ascii;
    class       dictionary;
    object      blockMeshDict;
}

// * * * * * * * * * * * * * * * * * * * * * * * * * * * * * * * * * * * * * //

convertToMeters 2.462491658e-9;

vertices
(
    (-1 -1 -1)
    (1 -1 -1)
    (1 1 -1)
    (-1 1 -1)
    (-1 -1 1)
    (1 -1 1)
    (1 1 1)
    (-1 1 1)
);

blocks
(
    hex (0 1 2 3 4 5 6 7) liquid (12 12 12) simpleGrading (1 1 1)
);

boundary
(
    periodicX_half0
    {
        type cyclic;
        faces ((1 2 6 5));
        neighbourPatch periodicX_half1;
    }

    periodicX_half1
    {
        type cyclic;
        faces ((0 4 7 3));
        neighbourPatch periodicX_half0;
    }

    periodicY_half0
    {
        type cyclic;
        faces ((2 3 7 6));
        neighbourPatch periodicY_half1;
    }

    periodicY_half1
    {
        type cyclic;
        faces ((0 1 5 4));
        neighbourPatch periodicY_half0;
    }

    periodicZ_half0
    {
        type cyclic;
        faces ((4 5 6 7));
        neighbourPatch periodicZ_half1;
    }

    periodicZ_half1
    {
        type cyclic;
        faces ((0 3 2 1));
        neighbourPatch periodicZ_half0;
    }
);

mergePatchPairs
(
);


// ************************************************************************* //
