/*--------------------------------*- C++ -*----------------------------------*\
  =========                 |
  \\      /  F ield         | OpenFOAM: The Open Source CFD Toolbox
   \\    /   O peration     | Website:  https://openfoam.org
    \\  /    A nd           | Version:  dev
     \\/     M anipulation  |
\*---------------------------------------------------------------------------*/
FoamFile
{
    version     2.0;
    format      ascii;
    class       volScalarField;
    object      epsilon;
}
// * * * * * * * * * * * * * * * * * * * * * * * * * * * * * * * * * * * * * //

epsilonInlet    0.001;

dimensions      [0 2 -3 0 0 0 0];

internalField   uniform $epsilonInlet;

boundaryField
{
    inlet
    {
        type            turbulentMixingLengthDissipationRateInlet;
        mixingLength    0.05;
        value           uniform $epsilonInlet;
    }

    outlet
    {
        type            inletOutlet;
        inletValue      uniform $epsilonInlet;
        value           uniform $epsilonInlet;
    }
    wall
    {
        type            epsilonWallFunction;
        value           uniform $epsilonInlet;
    }

    #includeEtc "caseDicts/setConstraintTypes"
}

// ************************************************************************* //
