/*--------------------------------*- C++ -*----------------------------------*\
  =========                 |
  \\      /  F ield         | OpenFOAM: The Open Source CFD Toolbox
   \\    /   O peration     | Website:  https://openfoam.org
    \\  /    A nd           | Version:  dev
     \\/     M anipulation  |
\*---------------------------------------------------------------------------*/
FoamFile
{
    version     2.0;
    format      ascii;
    class       dictionary;
    location    "system";
    object      functions;
}
// * * * * * * * * * * * * * * * * * * * * * * * * * * * * * * * * * * * * * //

$functionSets!combustionFunctions;
$functionSets!controlFunctions;
$functionSets!fieldsFunctions;
$functionSets!fieldsOperationsFunctions;
$functionSets!forcesFunctions;
$functionSets!graphsFunctions;
$functionSets!lagrangianFunctions;
$functionSets!numericalFunctions;
$functionSets!pressureFunctions;
$functionSets!probesFunctions;
$functionSets!solversFunctions;
$functionSets!streamlinesFunctions;
$functionSets!surfaceFunctions;
$functionSets!surfaceFieldValueFunctions;
$functionSets!volFieldValueFunctions;

// ************************************************************************* //
