/*--------------------------------*- C++ -*----------------------------------*\
| =========                 |                                                 |
| \\      /  F ield         | OpenFOAM: The Open Source CFD Toolbox           |
|  \\    /   O peration     | Version:  dev                                   |
|   \\  /    A nd           | Website:  https://openfoam.org                  |
|    \\/     M anipulation  |                                                 |
\*---------------------------------------------------------------------------*/
FoamFile
{
    version     2.0;
    format      ascii;
    class       dictionary;
    location    "constant";
    object      phaseProperties;
}
// * * * * * * * * * * * * * * * * * * * * * * * * * * * * * * * * * * * * * //

type    thermalPhaseChangeTwoPhaseSystem;

phases (gas liquid);

phaseChange on;

gas
{
    type            purePhaseModel;
    diameterModel   isothermal;
    constantCoeffs
    {
        d               0.00045;
    }

    isothermalCoeffs
    {
        d0               0.00045;
        p0              1e5;
    }
    Sc              0.7;

    residualAlpha   1e-4;
}

liquid
{
    type            purePhaseModel;
    diameterModel   constant;
    constantCoeffs
    {
        d               0.00045;
    }
    Sc              0.7;

    residualAlpha   1e-4;
}

blending
{
    default
    {
        type            none;
        continuousPhase liquid;
    }
}

surfaceTension
();

saturationModel
{
    type function1;

    function csvFile;
    functionCoeffs
    {
        nHeaderLine         1;
        refColumn           0;
        componentColumns    (1);
        separator           ",";
        mergeSeparators     no;
        file                "Tsat_water_1_2bar.csv";
        outOfBounds         clamp;
        interpolationScheme linear;
    };
};

aspectRatio
();

drag
(
    (gas in liquid)
    {
        type            SchillerNaumann;
        residualRe      1e-3;
        swarmCorrection
        {
            type        none;
        }
    }
);

virtualMass
(
    (gas in liquid)
    {
        type            constantCoefficient;
        Cvm             0.5;
    }
);

heatTransfer.gas
(
    (gas in liquid)
    {
        type spherical;
        residualAlpha 1e-3;
    }
);

heatTransfer.liquid
(
    (gas in liquid)
    {
        type RanzMarshall;
        residualAlpha 1e-3;
    }
);

phaseTransfer
();

lift
();

wallLubrication
();

turbulentDispersion
(
    (gas in liquid)
    {
        type                Burns;
        sigma               0.7;
        Ctd                 1.0;
        residualAlpha       1e-3;
    }
);

// Minimum allowable pressure
pMin            10000;


// ************************************************************************* //
