/*--------------------------------*- C++ -*----------------------------------*\
  =========                 |
  \\      /  F ield         | OpenFOAM: The Open Source CFD Toolbox
   \\    /   O peration     | Website:  https://openfoam.org
    \\  /    A nd           | Version:  dev
     \\/     M anipulation  |
\*---------------------------------------------------------------------------*/
FoamFile
{
    version     2.0;
    format      ascii;
    class       dictionary;
    location    "system";
    object      fvSolution;
}
// * * * * * * * * * * * * * * * * * * * * * * * * * * * * * * * * * * * * * //

solvers
{
    "(rho|G)"
    {
        solver          PCG;
        preconditioner  DIC;
        tolerance       1e-05;
        relTol          0.1;
    }

   "(rho|G)Final"
    {
        $rho;
        tolerance       1e-05;
        relTol          0;
    }

    p
    {
        solver          GAMG;
        tolerance       1e-06;
        relTol          0.01;
        smoother        GaussSeidel;
    }

    pFinal
    {
        $p;
        tolerance       1e-06;
        relTol          0;
    }

    "(U|h|R|k|epsilon)"
    {
        solver          smoothSolver;
        smoother        symGaussSeidel;
        tolerance       1e-05;
        relTol          0.1;
    }

    "(U|h|R|k|epsilon)Final"
    {
        $U;
        tolerance       1e-05;
        relTol          0;
    }

    "(Yi|CO2|O2|N2|CH4|H2|H2O|CO)"
    {
        $h;
    }

    "(Yi|CO2|O2|N2|CH4|H2|H2O|CO)Final"
    {
        $Yi;
        tolerance       1e-06;
        relTol          0;
    }
}

PIMPLE
{
    transonic       yes;
    nCorrectors     3;
    nNonOrthogonalCorrectors 0;
    momentumPredictor yes;
}


relaxationFactors
{
    fields
    {
        ".*"            1;
    }
    equations
    {
        ".*"            1;
    }
}


// ************************************************************************* //
