/*--------------------------------*- C++ -*----------------------------------*\
  =========                 |
  \\      /  F ield         | OpenFOAM: The Open Source CFD Toolbox
   \\    /   O peration     | Website:  https://openfoam.org
    \\  /    A nd           | Version:  dev
     \\/     M anipulation  |
\*---------------------------------------------------------------------------*/
FoamFile
{
    format      ascii;
    class       volScalarField;
    location    "0";
    object      FSDomega;
}
// * * * * * * * * * * * * * * * * * * * * * * * * * * * * * * * * * * * * * //


dimensions      [momentumDensity];

internalField   uniform 0;

boundaryField
{
    outlet
    {
        type            inletOutlet;
        inletValue      uniform 0;
    }

    sides
    {
        type            inletOutlet;
        inletValue      uniform 0;
    }

    base
    {
        type            zeroGradient;
    }

    inlet
    {
        type            fixedValue;
        value           uniform 0.0;
    }

    frontAndBack
    {
        type            empty;
    }
}

// ************************************************************************* //
