/*--------------------------------*- C++ -*----------------------------------*\
  =========                 |
  \\      /  F ield         | OpenFOAM: The Open Source CFD Toolbox
   \\    /   O peration     | Website:  https://openfoam.org
    \\  /    A nd           | Version:  dev
     \\/     M anipulation  |
\*---------------------------------------------------------------------------*/
FoamFile
{
    version     2.0;
    format      ascii;
    class       volScalarField;
    location    "0/topAir";
    object      qr;
}
// * * * * * * * * * * * * * * * * * * * * * * * * * * * * * * * * * * * * * //

dimensions      [ 1 0 -3 0 0 0 0 ];

internalField   uniform 0;

boundaryField
{
    "(min|max)(X|Y|Z)"
    {
        type            greyDiffusiveRadiationViewFactor;
        value           $internalField;
        emissivityMode  lookup;
        qro             uniform 0;
        emissivity      uniform 1;
    }
    "topAir_to_.*"
    {
        type            greyDiffusiveRadiationViewFactor;
        value           $internalField;
        emissivityMode  solidRadiation;
        qro             uniform 0;
        emissivity      uniform 1;
    }
}


// ************************************************************************* //
