/*--------------------------------*- C++ -*----------------------------------*\
  =========                 |
  \\      /  F ield         | OpenFOAM: The Open Source CFD Toolbox
   \\    /   O peration     | Website:  https://openfoam.org
    \\  /    A nd           | Version:  dev
     \\/     M anipulation  |
\*---------------------------------------------------------------------------*/
FoamFile
{
    format      ascii;
    class       dictionary;
    location    "constant";
    object      radiationProperties;
}
// * * * * * * * * * * * * * * * * * * * * * * * * * * * * * * * * * * * * * //

radiationModel  fvDOM;

fvDOMCoeffs
{
    nPhi        40;     // azimuthal angles in PI/2 on X-Y.(from Y to X)
    nTheta      1;      // polar angles in PI (from Z to X-Y plane)
    tolerance   1e-3;   // convergence tolerance for radiation iteration
    maxIter     10;     // maximum number of iterations
}

solverFreq 1;

absorptionEmissionModel constant;

constantCoeffs
{
    absorptivity    absorptivity    [0 -1 0 0 0 0 0] 1e-8;
    emissivity      emissivity      [0 -1 0 0 0 0 0] 0;
    E               E               [1 -1 -3 0 0 0 0] 0;
}

scatterModel    none;

sootModel       none;

// ************************************************************************* //
