/*--------------------------------*- C++ -*----------------------------------*\
  =========                 |
  \\      /  F ield         | OpenFOAM: The Open Source CFD Toolbox
   \\    /   O peration     | Website:  https://openfoam.org
    \\  /    A nd           | Version:  dev
     \\/     M anipulation  |
\*---------------------------------------------------------------------------*/
FoamFile
{
    format      ascii;
    class       volVectorField;
    location    "0";
    object      U;
}
// * * * * * * * * * * * * * * * * * * * * * * * * * * * * * * * * * * * * * //

dimensions      [0 1 -1 0 0 0 0];

internalField   uniform (0 0 0);

boundaryField
{
    inlet
    {
        type            pressureInletOutletVelocity;
        value           $internalField;
    }

    outlet
    {
        type            pressureInletOutletVelocity;
        value           $internalField;
    }

    sides
    {
        type            noSlip;
    }

    region0_to_wallFilm_walls
    {
        type            noSlip;
    }
}


// ************************************************************************* //
