/*--------------------------------*- C++ -*----------------------------------*\
  =========                 |
  \\      /  F ield         | OpenFOAM: The Open Source CFD Toolbox
   \\    /   O peration     | Website:  https://openfoam.org
    \\  /    A nd           | Version:  dev
     \\/     M anipulation  |
\*---------------------------------------------------------------------------*/
FoamFile
{
    version     2.0;
    format      ascii;
    class       dictionary;
    location    "constant";
    object      scalarListList;
}
// * * * * * * * * * * * * * * * * * * * * * * * * * * * * * * * * * * * * * //
// (x y z) (u v w) d rho mDot T Cp (Y0..Y2)
(
    (0.1 0.32 0.0) (0.5  0.25 0.0) 0.001 1000 0.2 300 4200 (1)
    (0.1 0.44 0.0) (0.5  0.10 0.0) 0.001 1000 0.2 300 4200 (1)
    (0.1 0.56 0.0) (0.5 -0.10 0.0) 0.001 1000 0.2 300 4200 (1)
    (0.1 0.68 0.0) (0.5 -0.25 0.0) 0.001 1000 0.2 300 4200 (1)
);


// ************************************************************************* //
