/*--------------------------------*- C++ -*----------------------------------*\
  =========                 |
  \\      /  F ield         | OpenFOAM: The Open Source CFD Toolbox
   \\    /   O peration     | Website:  https://openfoam.org
    \\  /    A nd           | Version:  dev
     \\/     M anipulation  |
\*---------------------------------------------------------------------------*/
FoamFile
{
    version     2.0;
    format      ascii;
    class       dictionary;
    location    "system";
    object      fvConstraints;
}
// * * * * * * * * * * * * * * * * * * * * * * * * * * * * * * * * * * * * * //

fixedTemperature
{
    type            fixedTemperatureConstraint;

    selectionMode   cellZone;
    cellZone        porosity;

    mode            uniform;
    temperature     350;
}


porosityTurbulence
{
    type            fixedValueConstraint;

    selectionMode   cellZone;
    cellZone        porosity;

    fieldValues
    {
        k           1;
        epsilon     150;
    }
}


// ************************************************************************* //
