/*--------------------------------*- C++ -*----------------------------------*\
| =========                 |                                                 |
| \\      /  F ield         | OpenFOAM: The Open Source CFD Toolbox           |
|  \\    /   O peration     | Version:  dev                                   |
|   \\  /    A nd           | Website:  https://openfoam.org                  |
|    \\/     M anipulation  |                                                 |
\*---------------------------------------------------------------------------*/
FoamFile
{
    version     2.0;
    format      ascii;
    class       dictionary;
    location    "system";
    object      fvSolution;
}
// * * * * * * * * * * * * * * * * * * * * * * * * * * * * * * * * * * * * * //

solvers
{
    p
    {
        solver          GAMG;
        tolerance       1e-08;
        relTol          0.05;
        smoother        GaussSeidel;
        nCellsInCoarsestLevel 20;
    }

    U
    {
        solver          smoothSolver;
        smoother        GaussSeidel;
        nSweeps         2;
        tolerance       1e-06;
        relTol          0.1;
    }

    e
    {
        solver          smoothSolver;
        smoother        symGaussSeidel;
        tolerance       1e-06;
        relTol          0.1;
    }

    "(k|epsilon)"
    {
        $U;
        tolerance       1e-07;
        relTol          0.1;
    }
}

SIMPLE
{
    nNonOrthogonalCorrectors 0;
    pMinFactor      0.4;
    pMaxFactor      1.5;

    residualControl
    {
        p               1e-2;
        U               1e-4;
        e               1e-3;

        // Possibly check turbulence fields
        "(k|epsilon|omega)" 1e-3;
    }
}

relaxationFactors
{
    fields
    {
        p               0.3;
        rho             0.05;
    }
    equations
    {
        U               0.7;
        "(k|epsilon)"   0.7;
        e               0.5;
    }
}


// ************************************************************************* //
