/*--------------------------------*- C++ -*----------------------------------*\
| =========                 |                                                 |
| \\      /  F ield         | OpenFOAM: The Open Source CFD Toolbox           |
|  \\    /   O peration     | Version:  dev                                   |
|   \\  /    A nd           | Website:  https://openfoam.org                  |
|    \\/     M anipulation  |                                                 |
\*---------------------------------------------------------------------------*/
FoamFile
{
    version     2.0;
    format      ascii;
    class       volScalarField;
    object      p;
}
// * * * * * * * * * * * * * * * * * * * * * * * * * * * * * * * * * * * * * //

dimensions      [1 -1 -2 0 0 0 0];

internalField   uniform 1e+07;

boundaryField
{
    outerWall
    {
        type            zeroGradient;
    }

    axis
    {
        type            symmetryPlane;
    }

    nozzle
    {
        type            fixedValue;
        value           uniform 0;
    }

    back
    {
        type            empty;
    }

    front
    {
        type            empty;
    }
}

// ************************************************************************* //
