/*--------------------------------*- C++ -*----------------------------------*\
  =========                 |
  \\      /  F ield         | OpenFOAM: The Open Source CFD Toolbox
   \\    /   O peration     | Website:  https://openfoam.org
    \\  /    A nd           | Version:  dev
     \\/     M anipulation  |
\*---------------------------------------------------------------------------*/
FoamFile
{
    format      ascii;
    class       dictionary;
    location    "system";
    object      fvSchemes;
}
// * * * * * * * * * * * * * * * * * * * * * * * * * * * * * * * * * * * * * //

ddtSchemes
{
    default         Euler;
}

gradSchemes
{
    default         Gauss linear;
    grad(U)         cellLimited Gauss linear 1;
    grad(k)         cellLimited Gauss linear 1;
    grad(epsilon)   cellLimited Gauss linear 1;
}

divSchemes
{
    default         none;
    div(phi,alpha)  Gauss interfaceCompression vanLeer 1;
    div(rhoPhi,U)   Gauss limitedLinear 1;
    div(rhoPhi,K)   Gauss limitedLinear 1;
    div(phi,p)      Gauss upwind;
    div(alphaRhoPhi,e) Gauss limitedLinear 1;
    div(alphaRhoPhi,T) Gauss upwind;
    div(rhoPhi,k)   Gauss upwind;
    div(rhoPhi,epsilon) Gauss upwind;
    div(((rho*nuEff)*dev2(T(grad(U))))) Gauss linear;
}

laplacianSchemes
{
    default         Gauss linear corrected;
}

interpolationSchemes
{
    default         linear;
}

snGradSchemes
{
    default         corrected;
}


// ************************************************************************* //
