/*--------------------------------*- C++ -*----------------------------------*\
| =========                 |                                                 |
| \\      /  F ield         | OpenFOAM: The Open Source CFD Toolbox           |
|  \\    /   O peration     | Version:  dev                                   |
|   \\  /    A nd           | Website:  https://openfoam.org                  |
|    \\/     M anipulation  |                                                 |
\*---------------------------------------------------------------------------*/
FoamFile
{
    version     2.0;
    format      ascii;
    class       dictionary;
    object      extrudeToRegionMeshDict;
}
// * * * * * * * * * * * * * * * * * * * * * * * * * * * * * * * * * * * * * //

region          filmRegion;

faceZones       (coupledWall);

oneD            false;

sampleMode      nearestPatchFace;

extrudeModel    linearNormal;

nLayers         1;

expansionRatio  1;

adaptMesh       false; // leave primary region patches intact

linearNormalCoeffs
{
    thickness       0.001;
}

// * * * * * * * * * * * * * * * * * * * * * * * * * * * * * * * * * * * * * //
