/*--------------------------------*- C++ -*----------------------------------*\
  =========                 |
  \\      /  F ield         | OpenFOAM: The Open Source CFD Toolbox
   \\    /   O peration     | Website:  https://openfoam.org
    \\  /    A nd           | Version:  dev
     \\/     M anipulation  |
\*---------------------------------------------------------------------------*/
FoamFile
{
    format      ascii;
    class       dictionary;
    object      extrudeToRegionMeshDict;
}
// * * * * * * * * * * * * * * * * * * * * * * * * * * * * * * * * * * * * * //

region          wallFilm;

patches         (walls cylinder);

extrudeModel    linearNormal;

nLayers         1;

expansionRatio  1;

adaptMesh       yes; // apply mapped to both regions

linearNormalCoeffs
{
    thickness       0.01;
}

// ************************************************************************* //
