/*--------------------------------*- C++ -*----------------------------------*\
| =========                 |                                                 |
| \\      /  F ield         | OpenFOAM: The Open Source CFD Toolbox           |
|  \\    /   O peration     | Version:  dev                                   |
|   \\  /    A nd           | Web:      www.OpenFOAM.org                      |
|    \\/     M anipulation  |                                                 |
\*---------------------------------------------------------------------------*/
FoamFile
{
    version     2.0;
    format      ascii;
    class       dictionary;
    location    "system";
    object      fvOptions;
}
// * * * * * * * * * * * * * * * * * * * * * * * * * * * * * * * * * * * * * //

porosity1
{
    type            explicitPorositySource;
    active          yes;
    selectionMode   cellZone;
    cellZone        stator;

    explicitPorositySourceCoeffs
    {
        type            DarcyForchheimer;

        DarcyForchheimerCoeffs
        {
            d   d [0 -2 0 0 0 0 0] (1e5 -1000 -1000);
            f   f [0 -1 0 0 0 0 0] (0 0 0);

            coordinateSystem
            {
                type    cartesian;
                origin  (0 0 0);
                coordinateRotation
                {
                    type    axesRotation;
                    e1  (1 0 0);
                    e2  (0 1 0);
                }
            }
        }
    }
}


MRF1
{
    type            MRFSource;
    active          yes;
    selectionMode   cellZone;
    cellZone        rotor;

    MRFSourceCoeffs
    {
        // Fixed patches (by default they 'move' with the MRF zone)
        nonRotatingPatches ();

        origin    (0 0 0);
        axis      (0 0 1);
        omega     constant 1047.2;
    }
}


// ************************************************************************* //
