/*--------------------------------*- C++ -*----------------------------------*\
  =========                 |
  \\      /  F ield         | OpenFOAM: The Open Source CFD Toolbox
   \\    /   O peration     | Website:  https://openfoam.org
    \\  /    A nd           | Version:  dev
     \\/     M anipulation  |
\*---------------------------------------------------------------------------*/
FoamFile
{
    format      ascii;
    class       volVectorField;
    location    "0";
    object      U;
}
// * * * * * * * * * * * * * * * * * * * * * * * * * * * * * * * * * * * * * //

dimensions      [0 1 -1 0 0 0 0];

internalField   uniform (0 0 0);

boundaryField
{
    back
    {
        type            symmetryPlane;
    }
    front
    {
        type            symmetryPlane;
    }
    inletCentral
    {
        type            flowRateInletVelocity;
        rhoInlet        1.2;
        massFlowRate    constant 0.00379;
        profile         turbulentBL;
        value           uniform (0 14.68 0);
    }
    inletSides
    {
        type            flowRateInletVelocity;
        rhoInlet        1.2;
        massFlowRate    constant 0.00832;
        profile         turbulentBL;
        value           uniform (0 17.79 0);
    }
    outlet
    {
        type            pressureInletOutletVelocity;
        value           uniform (0 0 0);
    }
    walls
    {
        type            noSlip;
    }
}


// ************************************************************************* //
