/*--------------------------------*- C++ -*----------------------------------*\
  =========                 |
  \\      /  F ield         | OpenFOAM: The Open Source CFD Toolbox
   \\    /   O peration     | Website:  https://openfoam.org
    \\  /    A nd           | Version:  dev
     \\/     M anipulation  |
\*---------------------------------------------------------------------------*/
FoamFile
{
    format      ascii;
    class       volScalarField;
    object      p;
}
// * * * * * * * * * * * * * * * * * * * * * * * * * * * * * * * * * * * * * //

dimensions      [0 2 -2 0 0 0 0];

internalField   uniform 0;

boundaryField
{
    // Set empty. Explicit patch name should win.
    empty
    {
        type            MATCHEMPTYGROUP;
    }

    frontAndBack
    {
        type            empty;
    }

    ".*Back"
    {
        type            MATCHWILDCARD;
    }

    // Set walls. Last patchGroup should win.
    allBoundaryGroup
    {
        type            MATCHALLGROUP;
    }

    wallsGroup
    {
        type            zeroGradient;
    }

}

// ************************************************************************* //
