/*--------------------------------*- C++ -*----------------------------------*\
  =========                 |
  \\      /  F ield         | OpenFOAM: The Open Source CFD Toolbox
   \\    /   O peration     | Website:  https://openfoam.org
    \\  /    A nd           | Version:  dev
     \\/     M anipulation  |
\*---------------------------------------------------------------------------*/
FoamFile
{
    format      ascii;
    class       volScalarField;
    location    "0/air";
    object      p_rgh;
}
// * * * * * * * * * * * * * * * * * * * * * * * * * * * * * * * * * * * * * //

dimensions      [pressure];

internalField   uniform 0;

boundaryField
{
    walls
    {
        type            fixedFluxPressure;
    }
    inlet
    {
        type            fixedFluxPressure;
    }
    outlet
    {
        type            fixedValue;
        value           $internalField;
    }
    blades
    {
        type            fixedFluxPressure;
    }
}


// ************************************************************************* //
