/*--------------------------------*- C++ -*----------------------------------*\
| =========                 |                                                 |
| \\      /  F ield         | OpenFOAM: The Open Source CFD Toolbox           |
|  \\    /   O peration     | Version:  dev                                   |
|   \\  /    A nd           | Website:  https://openfoam.org                  |
|    \\/     M anipulation  |                                                 |
\*---------------------------------------------------------------------------*/
FoamFile
{
    version     2.0;
    format      ascii;
    class       dictionary;
    object      surfaceFeatureExtractDict.cfg;
}
// * * * * * * * * * * * * * * * * * * * * * * * * * * * * * * * * * * * * * //

extractionMethod     extractFromSurface;

extractFromSurfaceCoeffs
{
    includedAngle    150;
    geometricTestOnly no;
}

subsetFeatures
{
    nonManifoldEdges yes;
    openEdges        yes;
}

trimFeatures
{
    minElem          0;
    minLen           0;
}

writeObj             yes;

// ************************************************************************* //
