/*--------------------------------*- C++ -*----------------------------------*\
  =========                 |
  \\      /  F ield         | OpenFOAM: The Open Source CFD Toolbox
   \\    /   O peration     | Website:  https://openfoam.org
    \\  /    A nd           | Version:  dev
     \\/     M anipulation  |
\*---------------------------------------------------------------------------*/
FoamFile
{
    format      ascii;
    class       volScalarField;
    object      alpha.water;
}
// * * * * * * * * * * * * * * * * * * * * * * * * * * * * * * * * * * * * * //

#include        "include/initialConditions"

dimensions      [];

internalField   uniform 0;

boundaryField
{
    inlet
    {
        type            variableHeightFlowRate;
        lowerBound      0;
        upperBound      1;
        value           uniform 0;
    }

    outlet
    {
        type            zeroGradient;
    }

    lowerWall
    {
        type            zeroGradient;
    }

    atmosphere
    {
        type            inletOutlet;
        inletValue      uniform 0;
        value           uniform 0;
    }

    defaultFaces
    {
        type            empty;
    }
}

// ************************************************************************* //
