/*--------------------------------*- C++ -*----------------------------------*\
  =========                 |
  \\      /  F ield         | OpenFOAM: The Open Source CFD Toolbox
   \\    /   O peration     | Website:  https://openfoam.org
    \\  /    A nd           | Version:  dev
     \\/     M anipulation  |
\*---------------------------------------------------------------------------*/
FoamFile
{
    format      ascii;
    class       dictionary;
    location    "system";
    object      fvSchemes;
}
// * * * * * * * * * * * * * * * * * * * * * * * * * * * * * * * * * * * * * //

ddtSchemes
{
    default         Euler;
}

gradSchemes
{
    default            Gauss linear;
}

divSchemes
{
    default             none;

    div(phi,U)          Gauss limitedLinearV 1;

    div(phi,b)          Gauss limitedLinear01 1;
    div(phiXi,Xi)       Gauss limitedLinear 1;

    div(phib,fu.u)      Gauss limitedLinear01 1;
    div(phib,egr.u)     Gauss limitedLinear01 1;
    div(phib,h.u)       Gauss limitedLinear 1;
    div(phib,K)         Gauss limitedLinear 1;
    div(phi,(p|rho))    Gauss limitedLinear 1;

    div(phic,ft.b)      Gauss limitedLinear01 1;
    div(phic,h.b)       Gauss limitedLinear 1;
    div(phic,K)         Gauss limitedLinear 1;

    div(phi,k)          Gauss limitedLinear 1;
    div(phi,omega)      Gauss limitedLinear 1;

    div(((rho*nuEff)*dev2(T(grad(U))))) Gauss linear;
}

laplacianSchemes
{
    default         Gauss linear corrected;
}

interpolationSchemes
{
    default         linear;
}

snGradSchemes
{
    default         corrected;
}

wallDist
{
    method meshWave;
}

// ************************************************************************* //
