/*--------------------------------*- C++ -*----------------------------------*\
  =========                 |
  \\      /  F ield         | OpenFOAM: The Open Source CFD Toolbox
   \\    /   O peration     | Website:  https://openfoam.org
    \\  /    A nd           | Version:  dev
     \\/     M anipulation  |
\*---------------------------------------------------------------------------*/
FoamFile
{
    format      ascii;
    class       dictionary;
    object      blockMeshDict;
}

// * * * * * * * * * * * * * * * * * * * * * * * * * * * * * * * * * * * * * //

convertToMeters 1;

vertices
(
    ( 659600  4.7514e+06  1028)
    ( 659600  4.7514e+06  2100)
    ( 662300  4.7514e+06  2100)
    ( 662300  4.7514e+06  1028)
    ( 659600  4.7545e+06  1028)
    ( 659600  4.7545e+06  2100)
    ( 662300  4.7545e+06  2100)
    ( 662300  4.7545e+06  1028)
);

blocks
(
    hex (0 1 2 3 4 5 6 7) (20 60 60) simpleGrading (10.0 1 1)
//    hex (0 1 2 3 4 5 6 7) (6 6 6) simpleGrading (10.0 1 1)
);

edges
(
);

boundary
(
    maxX
    {
        type patch;
        faces
        (
            (3 7 6 2)
        );
    }
    minZ
    {
        type patch;
        faces
        (
            (0 4 7 3)
        );
    }
    maxZ
    {
        type patch;
        faces
        (
            (2 6 5 1)
        );
    }
    minX
    {
        type patch;
        faces
        (
            (1 5 4 0)
        );
    }
    minY
    {
        type patch;
        faces
        (
            (0 3 2 1)
        );
    }
    maxY
    {
        type patch;
        faces
        (
            (4 5 6 7)
        );
    }
);

mergePatchPairs
(
);


// ************************************************************************* //
