/*--------------------------------*- C++ -*----------------------------------*\
  =========                 |
  \\      /  F ield         | OpenFOAM: The Open Source CFD Toolbox
   \\    /   O peration     | Website:  https://openfoam.org
    \\  /    A nd           | Version:  dev
     \\/     M anipulation  |
\*---------------------------------------------------------------------------*/
FoamFile
{
    format      ascii;
    class       dictionary;
    location    "constant";
    object      cloudProperties;
}
// * * * * * * * * * * * * * * * * * * * * * * * * * * * * * * * * * * * * * //

type        cloud;

solution
{
    coupled         false;
    transient       yes;
    cellValueSourceCorrection off;
    maxCo           0.3;

    interpolationSchemes
    {
        rho             cell;
        U               cellPoint;
        mu              cell;
    }

    integrationSchemes
    {
        U               Euler;
    }
}

constantProperties
{
    rho0            964;
}

subModels
{
    particleForces
    {
        sphereDrag;
    }

    injectionModels
    {
        model1
        {
            type            patchInjection;
            SOI             0;
            duration        5;
            nParticle       1;
            parcelsPerSecond 1000;
            patchName       inlet;
            U0              (1 0 0);
            flowRateProfile constant 1;
            sizeDistribution
            {
                type            fixedValue;
                value           1e-4;
            }
        }
    }

    dispersionModel none;

    patchInteractionModel standardWallInteraction;

    standardWallInteractionCoeffs
    {
        type rebound;
    }

    surfaceFilmModel none;

    stochasticCollisionModel none;
}


// ************************************************************************* //
