/*--------------------------------*- C++ -*----------------------------------*\
  =========                 |
  \\      /  F ield         | OpenFOAM: The Open Source CFD Toolbox
   \\    /   O peration     | Website:  https://openfoam.org
    \\  /    A nd           | Version:  dev
     \\/     M anipulation  |
\*---------------------------------------------------------------------------*/
FoamFile
{
    format      ascii;
    class       dictionary;
    location    "constant";
    object      combustionProperties;
}
// * * * * * * * * * * * * * * * * * * * * * * * * * * * * * * * * * * * * * //


laminarFlameSpeed
{
    model           unstrained;

    unstrainedLaminarFlameSpeed
    {
        model           Gulders;

        fuel            IsoOctane;
        equivalenceRatio 1;

        Methane
        {
            W               0.422;
            eta             0.15;
            xi              5.18;
            alpha           2;
            beta            -0.5;
            f               2.3;
        }

        Propane
        {
            W               0.446;
            eta             0.12;
            xi              4.95;
            alpha           1.77;
            beta            -0.2;
            f               2.3;
        }

        IsoOctane
        {
            W               0.4658;
            eta             -0.326;
            xi              4.48;
            alpha           1.56;
            beta            -0.22;
            f               2.3;
        }
    }
}

flameWrinkling
{
    model           transport;

    equilibrium
    {
        model           Gulder;
    }

    generationRate
    {
        model           KTS;
    }
}

ignite          yes;

ignitionSites
(
    {
        location        (0.03 0 0.091);
        diameter        0.002;
        start           -15;
        duration        20;
        strength        4;
    }
);

ignitionSphereFraction 1;

ignitionThickness ignitionThickness [0 1 0 0 0 0 0] 0;

ignitionCircleFraction 1;

ignitionKernelArea ignitionKernelArea [0 2 0 0 0 0 0] 0;


// ************************************************************************* //
