/*--------------------------------*- C++ -*----------------------------------*\
  =========                 |
  \\      /  F ield         | OpenFOAM: The Open Source CFD Toolbox
   \\    /   O peration     | Website:  https://openfoam.org
    \\  /    A nd           | Version:  dev
     \\/     M anipulation  |
\*---------------------------------------------------------------------------*/
FoamFile
{
    format      ascii;
    class       dictionary;
    location    "constant";
    object      fvModels;
}
// * * * * * * * * * * * * * * * * * * * * * * * * * * * * * * * * * * * * * //

ignition
{
    type            constantbXiIgnition;

    cellZone        ignition;

    start           -15;
    duration        1;
    strength        0.1;
}

correction
{
    type            bXiKernelCorr;

    cellZone        all;

    ignition        ignition;

    duration        20;

    kernelShape
    {
        type            spherical;
    }
}


// ************************************************************************* //
