/*--------------------------------*- C++ -*----------------------------------*\
  =========                 |
  \\      /  F ield         | OpenFOAM: The Open Source CFD Toolbox
   \\    /   O peration     | Website:  https://openfoam.org
    \\  /    A nd           | Version:  dev
     \\/     M anipulation  |
\*---------------------------------------------------------------------------*/
FoamFile
{
    format      ascii;
    class       dictionary;
    object      blockMeshDict;
}
// * * * * * * * * * * * * * * * * * * * * * * * * * * * * * * * * * * * * * //

convertToMeters 0.1;

vertices
(
    ( 0   0   0)
    ( 1   0   0)
    ( 0  0.5  0)
    ( 1  0.5  0)

    ( 0   0   1)
    ( 1   0   1)
    ( 0  0.5  1)
    ( 1  0.5  1)
);

blocks
(
    hex (0 1 3 2 4 5 7 6) (20 10 20) simpleGrading (1 1 1)
);

boundary
(
    top
    {
        type patch;

        faces
        (
            (4 5 7 6)
        );
    }
    sides
    {
        type symmetry;

        faces
        (
            (1 5 7 3)
            (4 0 2 6)
            (7 3 2 6)
            (0 4 5 1)
        );
    }
    film
    {
        type            mappedExtrudedWall;
        neighbourRegion film;
        neighbourPatch  surface;
        isExtrudedRegion no;

        faces
        (
            (0 1 3 2)
        );
    }
);


// ************************************************************************* //
