/*--------------------------------*- C++ -*----------------------------------*\
| =========                 |                                                 |
| \\      /  F ield         | OpenFOAM: The Open Source CFD Toolbox           |
|  \\    /   O peration     | Version:  dev                                   |
|   \\  /    A nd           | Website:  https://openfoam.org                  |
|    \\/     M anipulation  |                                                 |
\*---------------------------------------------------------------------------*/
FoamFile
{
    version     2.0;
    format      ascii;
    class       dictionary;
    location    "constant";
    object      chemistryProperties;
}
// * * * * * * * * * * * * * * * * * * * * * * * * * * * * * * * * * * * * * //

chemistryType
{
    solver            ode;
    method            TDAC;
}

chemistry       on;

initialChemicalTimeStep 1e-7;

odeCoeffs
{
    solver          seulex;
    absTol          1e-12;
    relTol          1e-1;
}

reduction
{
    active       on;

    // Switch logging of the reduction statistics and performance
    log         off;

    // Tolerance depends on the reduction method, see details for each method
    tolerance   1e-4;

    // Available methods: DRG, DAC, DRGEP, PFA, EFA
    method      DAC;

    // Search initiating set (SIS) of species, needed for most methods
    initialSet
    {
        CO;
        IC8H18;
        HO2;
    }

    // For DAC, option to automatically change the SIS switch from HO2 to H2O
    // and CO to CO2, + disable fuel
    automaticSIS    off;

    // When automaticSIS, the method needs to know the fuel
    fuelSpecies
    {
        IC8H18 1;
    }
}

// Tabulation is not effective for single-cell ignition calculations
tabulation
{
    method    none;
}


// ************************************************************************* //
