/*--------------------------------*- C++ -*----------------------------------*\
| =========                 |                                                 |
| \\      /  F ield         | OpenFOAM: The Open Source CFD Toolbox           |
|  \\    /   O peration     | Version:  dev                                   |
|   \\  /    A nd           | Web:      www.OpenFOAM.org                      |
|    \\/     M anipulation  |                                                 |
\*---------------------------------------------------------------------------*/
FoamFile
{
    version     2.0;
    format      ascii;
    class       dictionary;
    object      viewFactorsDict;
}
// * * * * * * * * * * * * * * * * * * * * * * * * * * * * * * * * * * * * * //

// Write agglomeration as a volScalarField with calculated boundary values
writeFacesAgglomeration   true;

//Debug option
debug                     0;

//Dump connectivity rays
dumpRays                  false;

// Per patch (wildcard possible) the coarsening level
bottomAir_to_heater
{
    nFacesInCoarsestLevel     30;
    featureAngle              10;
}


// ************************************************************************* //
