/*--------------------------------*- C++ -*----------------------------------*\
  =========                 |
  \\      /  F ield         | OpenFOAM: The Open Source CFD Toolbox
   \\    /   O peration     | Website:  https://openfoam.org
    \\  /    A nd           | Version:  dev
     \\/     M anipulation  |
\*---------------------------------------------------------------------------*/
FoamFile
{
    format      ascii;
    class       dictionary;
    object      phaseChangeProperties;
}
// * * * * * * * * * * * * * * * * * * * * * * * * * * * * * * * * * * * * * //

phaseChangeModel SchnerrSauer;

pSat            2364;

SchnerrSauerCoeffs
{
    n               1.6E+13;
    dNuc            2.0E-06;
    Cc              1.0;
    Cv              1.0;
}


// ************************************************************************* //
