/*--------------------------------*- C++ -*----------------------------------*\
  =========                 |
  \\      /  F ield         | OpenFOAM: The Open Source CFD Toolbox
   \\    /   O peration     | Website:  https://openfoam.org
    \\  /    A nd           | Version:  dev
     \\/     M anipulation  |
\*---------------------------------------------------------------------------*/
FoamFile
{
    format      ascii;
    class       volVectorField;
    location    "0";
    object      U;
}
// * * * * * * * * * * * * * * * * * * * * * * * * * * * * * * * * * * * * * //

#include        "$FOAM_CASE/constant/waveProperties"

dimensions      [velocity];

internalField
{
    type        waveVelocity;
    libs        ("libwaves.so");
}

boundaryField
{
    //- Set patchGroups for constraint patches
    #includeEtc "caseDicts/setConstraintTypes"

    inlet
    {
        type            waveVelocity;
        libs            ("libwaves.so");
    }

    outlet
    {
        type            outletPhaseMeanVelocity;
        alpha           alpha.water;
        UnMean          #neg $UxMean;
        value           uniform ($UxMean 0 0);
    }

    atmosphere
    {
        type            pressureInletOutletVelocity;
        tangentialVelocity uniform ($UxMean 0 0);
    }

    hull
    {
        type            movingWallVelocity;
        value           uniform (0 0 0);
    }
}


// ************************************************************************* //
