/*--------------------------------*- C++ -*----------------------------------*\
| =========                 |                                                 |
| \\      /  F ield         | OpenFOAM: The Open Source CFD Toolbox           |
|  \\    /   O peration     | Version:  dev                                   |
|   \\  /    A nd           | Website:  https://openfoam.org                  |
|    \\/     M anipulation  |                                                 |
\*---------------------------------------------------------------------------*/
FoamFile
{
    version     2.0;
    format      ascii;
    class       dictionary;
    location    "system";
    object      fvSolution;
}
// * * * * * * * * * * * * * * * * * * * * * * * * * * * * * * * * * * * * * //

solvers
{
    p
    {
        solver          GAMG;
        tolerance       1e-6;
        relTol          0.1;
        smoother        GaussSeidel;
    }

    "(U|k|omega|gammaInt|ReThetat)"
    {
        solver          smoothSolver;
        smoother        symGaussSeidel;
        tolerance       1e-8;
        relTol          0.1;
        maxIter         10;
    }
}

SIMPLE
{
    consistent      yes;

    residualControl
    {
        p               1e-5;
        U               1e-6;
        "(k|omega|gammaInt|ReThetat)" 1e-4;
    }
}

relaxationFactors
{
    equations
    {
        ".*"            0.9;
    }
}


// ************************************************************************* //
