/*--------------------------------*- C++ -*----------------------------------*\
  =========                 |
  \\      /  F ield         | OpenFOAM: The Open Source CFD Toolbox
   \\    /   O peration     | Website:  https://openfoam.org
    \\  /    A nd           | Version:  dev
     \\/     M anipulation  |
\*---------------------------------------------------------------------------*/
FoamFile
{
    format      ascii;
    class       volVectorField;
    location    "0/film";
    object      U;
}
// * * * * * * * * * * * * * * * * * * * * * * * * * * * * * * * * * * * * * //

dimensions      [velocity];

internalField   uniform (0 0 0);

boundaryField
{
    #includeEtc "caseDicts/setConstraintTypes"

    wall
    {
        type            noSlip;
    }

    surface
    {
        type            filmSurfaceVelocity;
        value           $internalField;
    }

    bottom
    {
        type            zeroGradient;
    }

    atmosphere
    {
        type            fixedValue;
        value           $internalField;
    }
}


// ************************************************************************* //
