/*--------------------------------*- C++ -*----------------------------------*\
  =========                 |
  \\      /  F ield         | OpenFOAM: The Open Source CFD Toolbox
   \\    /   O peration     | Website:  https://openfoam.org
    \\  /    A nd           | Version:  dev
     \\/     M anipulation  |
\*---------------------------------------------------------------------------*/
FoamFile
{
    format      ascii;
    class       dictionary;
    location    "constant";
    object      surfaceFilmProperties;
}
// * * * * * * * * * * * * * * * * * * * * * * * * * * * * * * * * * * * * * //

regionName      wallFilm;

viscosity
{
    model       Newtonian;
}

sigma       0.07;

deltaWet    1e-4;
hydrophilic no;

momentumTransport
{
    model       laminar;
    Cf          0.005;
}

forces
{
    thermocapillary;

    distributionContactAngle
    {
        Ccf             0.085;

        distribution
        {
            type            normal;
            normalDistribution
            {
                minValue        50;
                maxValue        100;
                expectation     75;
                variance        100;
            }
        }

        zeroForcePatches ();
    }
}

ejection
{
    curvatureSeparation
    {
        definedPatchRadii
        (
            ("(cube[0-9][0-9]_side[0-9]_to_cube[0-9][0-9]_side[0-9])" 0)
        );
    }

    drippingEjection
    {
        deltaStable  0;

        particlesPerParcel 100.0;

        parcelDistribution
        {
            type         RosinRammler;
            RosinRammlerDistribution
            {
                minValue        5e-04;
                maxValue        0.0012;
                d               7.5e-05;
                n               0.5;
            }
        }
    }
}

phaseChange
{
    model           standardPhaseChange;
    Tb              373;
    deltaMin        1e-8;
    L               1.0;
}

upperSurfaceModels
{
    heatTransfer
    {
        model       mappedConvectiveHeatTransfer;
    }
}

lowerSurfaceModels
{
    heatTransfer
    {
        model       constant;
        c0              50;
    }
}


// ************************************************************************* //
