/*--------------------------------*- C++ -*----------------------------------*\
  =========                 |
  \\      /  F ield         | OpenFOAM: The Open Source CFD Toolbox
   \\    /   O peration     | Website:  https://openfoam.org
    \\  /    A nd           | Version:  dev
     \\/     M anipulation  |
\*---------------------------------------------------------------------------*/
FoamFile
{
    format      ascii;
    class       dictionary;
    location    "constant";
    object      dynamicMeshDict;
}
// * * * * * * * * * * * * * * * * * * * * * * * * * * * * * * * * * * * * * //

mover
{
    type            motionSolver;

    libs            ("libfvMotionSolvers.so");

    motionSolver    velocityComponentLaplacian;

    component       x;
    diffusivity     directional (1 200 0);
}


topoChanger
{
    type    meshToMesh;

    libs    ("libmeshToMeshTopoChanger.so");

    times   (0.0015 0.003);

    cycle   #calc "1.0/300.0";
    begin   0;

    timeDelta 1e-6;
}


// ************************************************************************* //
