/*--------------------------------*- C++ -*----------------------------------*\
  =========                 |
  \\      /  F ield         | OpenFOAM: The Open Source CFD Toolbox
   \\    /   O peration     | Website:  https://openfoam.org
    \\  /    A nd           | Version:  dev
     \\/     M anipulation  |
\*---------------------------------------------------------------------------*/
FoamFile
{
    version     2.0;
    format      ascii;
    class       dictionary;
    object      fvSolution;
}
// * * * * * * * * * * * * * * * * * * * * * * * * * * * * * * * * * * * * * //

solvers
{
    "p_rgh.*"
    {
        solver           GAMG;
        tolerance        1e-7;
        relTol           0.01;

        smoother         GaussSeidel;

    }

    "(U|h|k|epsilon).*"
    {
        solver           PBiCGStab;
        preconditioner   DILU;
        tolerance        1e-7;
        relTol           0.1;
    }
}

PIMPLE
{
    momentumPredictor yes;
    nNonOrthogonalCorrectors 0;
    pRefCell        0;
    pRefValue       100000;
}

relaxationFactors
{
    fields
    {
        "rho.*"         1.0;
        "p_rgh.*"       0.7;
    }
    equations
    {
        "U.*"            0.3;
        "h.*"            0.7;
        "(k|epsilon|omega).*" 0.7;
        "qr.*"          0.7;
    }
}

// ************************************************************************* //
