/*--------------------------------*- C++ -*----------------------------------*\
  =========                 |
  \\      /  F ield         | OpenFOAM: The Open Source CFD Toolbox
   \\    /   O peration     | Website:  https://openfoam.org
    \\  /    A nd           | Version:  dev
     \\/     M anipulation  |
\*---------------------------------------------------------------------------*/
FoamFile
{
    version     2.0;
    format      ascii;
    class       dictionary;
    object      topoSetDict;
}
// * * * * * * * * * * * * * * * * * * * * * * * * * * * * * * * * * * * * * //

actions
(
    {
        name    injection;
        type    cellSet;
        action  new;
        source  boxToCell;
        sourceInfo
        {
           boxes
           (
                (0 0.04 0) (0.1 0.05 0.1)
           );
        }
    }

    {
        name    injection;
        type    cellZoneSet;
        action  new;
        source  setToCellZone;
        sourceInfo
        {
           set  injection;
        }
    }
);

// ************************************************************************* //
