/*--------------------------------*- C++ -*----------------------------------*\
  =========                 |
  \\      /  F ield         | OpenFOAM: The Open Source CFD Toolbox
   \\    /   O peration     | Website:  https://openfoam.org
    \\  /    A nd           | Version:  dev
     \\/     M anipulation  |
\*---------------------------------------------------------------------------*/
FoamFile
{
    version     2.0;
    format      ascii;
    class       dictionary;
    location    "system";
    object      fvSolution;
}
// * * * * * * * * * * * * * * * * * * * * * * * * * * * * * * * * * * * * * //

solvers
{
    "rho.*"
    {
        solver          diagonal;
    }

    "p.*"
    {
        solver          PBiCGStab;
        preconditioner  DILU;
        tolerance       1e-12;
        relTol          0;
    }

    "(U|e).*"
    {
        $p;
        tolerance       1e-9;
    }

    "(k|epsilon).*"
    {
        $p;
        tolerance       1e-10;
    }
}

PIMPLE
{
    nOuterCorrectors 1;
    nCorrectors      2;
    nNonOrthogonalCorrectors 0;
}


// ************************************************************************* //
