/*--------------------------------*- C++ -*----------------------------------*\
  =========                 |
  \\      /  F ield         | OpenFOAM: The Open Source CFD Toolbox
   \\    /   O peration     | Website:  https://openfoam.org
    \\  /    A nd           | Version:  dev
     \\/     M anipulation  |
\*---------------------------------------------------------------------------*/
FoamFile
{
    version     2.0;
    format      ascii;
    class       dictionary;
    location    "system";
    object      fvSolution;
}
// * * * * * * * * * * * * * * * * * * * * * * * * * * * * * * * * * * * * * //

solvers
{
    "alpha.water.*"
    {
        nAlphaCorr      3;
        nAlphaSubCycles 1;

        MULESCorr       yes;
        nLimiterIter    15;
        alphaApplyPrevCorr  yes;

        solver          smoothSolver;
        smoother        symGaussSeidel;
        tolerance       1e-10;
        relTol          0;
        minIter         1;
    }

    "pcorr.*"
    {
        solver          GAMG;
        smoother        DIC;

        tolerance       1e-3;
        relTol          0;
    };

    p_rgh
    {
        solver          GAMG;
        smoother        DIC;

        tolerance       5e-8;
        relTol          0;
    };

    p_rghFinal
    {
        $p_rgh;
        relTol          0;
    }

    "(U|k|omega).*"
    {
        solver          smoothSolver;
        smoother        symGaussSeidel;

        nSweeps         1;
        tolerance       1e-7;
        relTol          0;
        minIter         1;
    };
}

PIMPLE
{
    momentumPredictor no;

    nOuterCorrectors 3;
    nCorrectors      1;
    nNonOrthogonalCorrectors 0;

    correctPhi      yes;
    moveMeshOuterCorrectors yes;
    turbOnFinalIterOnly yes;
}

relaxationFactors
{
    equations
    {
        ".*" 1;
    }
}

cache
{
    grad(U);
}


// ************************************************************************* //
