/*--------------------------------*- C++ -*----------------------------------*\
  =========                 |
  \\      /  F ield         | OpenFOAM: The Open Source CFD Toolbox
   \\    /   O peration     | Website:  https://openfoam.org
    \\  /    A nd           | Version:  dev
     \\/     M anipulation  |
\*---------------------------------------------------------------------------*/
FoamFile
{
    format      ascii;
    class       dictionary;
    object      topoSetDict;
}
// * * * * * * * * * * * * * * * * * * * * * * * * * * * * * * * * * * * * * //

actions
(
    // Get both sides of ami
    // ~~~~~~~~~~~~~~~~~~~~~

    // Get all faces in cellSet
    {
        name    AMI;
        type    faceSet;
        action  new;
        source  patchToFace;
        sourceInfo
        {
            name "AMI.*";
        }
    }
);

// ************************************************************************* //
