/*--------------------------------*- C++ -*----------------------------------*\
| =========                 |                                                 |
| \\      /  F ield         | OpenFOAM: The Open Source CFD Toolbox           |
|  \\    /   O peration     | Version:  dev                                   |
|   \\  /    A nd           | Website:  https://openfoam.org                  |
|    \\/     M anipulation  |                                                 |
\*---------------------------------------------------------------------------*/
FoamFile
{
    version     2.0;
    format      ascii;
    class       dictionary;
    location    "system";
    object      controlDict;
}
// * * * * * * * * * * * * * * * * * * * * * * * * * * * * * * * * * * * * * //

application     simpleFoam;

startFrom       startTime;

startTime       0;

stopAt          endTime;

endTime         1000;

deltaT          1;

writeControl    timeStep;

writeInterval   50;

purgeWrite      0;

writeFormat     ascii;

writePrecision  6;

writeCompression off;

timeFormat      general;

timePrecision   6;

runTimeModifiable true;

functions
{
    streamLines
    {
        type            streamLine;

        // Where to load it from (if not already in solver)
        libs            ("libfieldFunctionObjects.so");

        // Output every
        writeControl    writeTime;
        // writeInterval 10;

        setFormat       vtk; // gnuplot;//xmgr;//raw;//jplot;//csv;//ensight;

        // Track forward (+U) or backward (-U) or both
        direction       forward;

        // Names of fields to sample. Should contain above velocity field!
        fields (p k U);

        // Steps particles can travel before being removed
        lifeTime        10000;

        // Number of steps per cell (estimate). Set to 1 to disable subcycling.
        nSubCycle 5;

        // Cloud name to use
        cloudName       particleTracks;

        // Seeding method.
        seedSampleSet
        {
            type        lineUniform;

            axis        x;  // distance;
            start       (-0.0205 0.001  0.00001);
            end         (-0.0205 0.0251 0.00001);
            nPoints     10;
        }
    }
}

// ************************************************************************* //
