/*--------------------------------*- C++ -*----------------------------------*\
  =========                 |
  \\      /  F ield         | OpenFOAM: The Open Source CFD Toolbox
   \\    /   O peration     | Website:  https://openfoam.org
    \\  /    A nd           | Version:  dev
     \\/     M anipulation  |
\*---------------------------------------------------------------------------*/
FoamFile
{
    version     2.0;
    format      ascii;
    class       dictionary;
    location    "system";
    object      fvSolution;
}
// * * * * * * * * * * * * * * * * * * * * * * * * * * * * * * * * * * * * * //

solvers
{
    "rho.*"
    {
        solver          diagonal;
    }

    p
    {
        solver          GAMG;
        smoother        DICGaussSeidel;

        tolerance       1e-6;
        relTol          0.05;
    }

    pFinal
    {
        $p;
        relTol          0;
    }

    Phi
    {
        $p;
    }

    "(U|k|omega)"
    {
        solver          smoothSolver;
        smoother        symGaussSeidel;

        tolerance       1e-6;
        relTol          0.1;
    }

    "(U|k|omega)Final"
    {
        $U;
        relTol          0;
    }

    "(Yi|O2|N2|H2O).*"
    {
        solver          PBiCGStab;
        preconditioner  DILU;

        tolerance       1e-6;
        relTol          0;
    }

    h
    {
        $Yi;
        relTol          0.1;
    }

    hFinal
    {
        $Yi;
    }
}

potentialFlow
{
    // Used for potentialFoam initialisation
    nNonOrthogonalCorrectors 5;
}

PIMPLE
{
    nOuterCorrectors 1;
    nCorrectors     3;
    nNonOrthogonalCorrectors 0;
    momentumPredictor yes;
}

relaxationFactors
{
    equations
    {
        ".*"        1;
    }
}


// ************************************************************************* //
