/*--------------------------------*- C++ -*----------------------------------*\
  =========                 |
  \\      /  F ield         | OpenFOAM: The Open Source CFD Toolbox
   \\    /   O peration     | Website:  https://openfoam.org
    \\  /    A nd           | Version:  dev
     \\/     M anipulation  |
\*---------------------------------------------------------------------------*/
FoamFile
{
    format      ascii;
    class       dictionary;
    location    "system";
    object      controlDict;
}
// * * * * * * * * * * * * * * * * * * * * * * * * * * * * * * * * * * * * * //

application     multiphaseEulerFoam;

startFrom       startTime;

startTime       0;

stopAt          endTime;

endTime         4;

deltaT          0.01;

writeControl    runTime;

writeInterval   4;

purgeWrite      0;

writeFormat     ascii;

writePrecision  6;

writeCompression uncompressed;

timeFormat      general;

timePrecision   6;

runTimeModifiable yes;

adjustTimeStep  no;

maxCo           0.5;

maxDeltaT       1;

functions
{
    numberDensity
    {
        type                sizeDistribution;
        functionObjectLibs  ("libmultiphaseEulerFoamFunctionObjects.so");

        writeControl        outputTime;
        writeInterval       1;

        setFormat           raw;

        populationBalance   bubbles;
        functionType        number;
        coordinateType      volume;
        densityFunction     yes;
    }

    moments
    {
        type                sizeDistribution;
        functionObjectLibs  ("libmultiphaseEulerFoamFunctionObjects.so");

        writeControl        runTime;
        writeInterval       0.1;

        setFormat           raw;

        populationBalance   bubbles;
        functionType        moments;
        coordinateType      volume;
        maxOrder            1;
    }
}

// ************************************************************************* //
