/*--------------------------------*- C++ -*----------------------------------*\
  =========                 |
  \\      /  F ield         | OpenFOAM: The Open Source CFD Toolbox
   \\    /   O peration     | Website:  https://openfoam.org
    \\  /    A nd           | Version:  dev
     \\/     M anipulation  |
\*---------------------------------------------------------------------------*/
FoamFile
{
    format      ascii;
    class       dictionary;
    location    "system";
    object      fvSchemes;
}
// * * * * * * * * * * * * * * * * * * * * * * * * * * * * * * * * * * * * * //

ddtSchemes
{
    default         Euler;
}

gradSchemes
{
    default         Gauss linear;
}

divSchemes
{
    default                         none;

    "div\(phi,alpha.*\)"            Gauss vanLeer;
    "div\(alphaRhoPhi.*,U.*\)"      Gauss limitedLinearV 1;
    "div\(alphaPhi.*,f.*\)"         Gauss limitedLinear 1;

    "div\(\(\(\(alpha.*\*thermo:rho.*\)\*nuEff.*\)\*dev2\(T\(grad\(U.*\)\)\)\)\)" Gauss linear;
}

laplacianSchemes
{
    default         Gauss linear uncorrected;
}

interpolationSchemes
{
    default         linear;
}

// ************************************************************************* //
