/*--------------------------------*- C++ -*----------------------------------*\
  =========                 |
  \\      /  F ield         | OpenFOAM: The Open Source CFD Toolbox
   \\    /   O peration     | Website:  https://openfoam.org
    \\  /    A nd           | Version:  dev
     \\/     M anipulation  |
\*---------------------------------------------------------------------------*/
FoamFile
{
    format      ascii;
    class       dictionary;
    location    "constant";
    object      physicalProperties;
}
// * * * * * * * * * * * * * * * * * * * * * * * * * * * * * * * * * * * * * //

thermoType
{
    type            heheuPsiThermo;
    mixture         inhomogeneousMixture;
    // mixture         inhomogeneousEGRMixture;
    transport       const;
    thermo          janaf;
    equationOfState perfectGas;
    specie          specie;
    energy          absoluteEnthalpy;
}

stoichiometricAirFuelMassRatio 15.675;

fuel
{
    specie
    {
        molWeight       114.23;
    }
    thermodynamics
    {
        Tlow            298.15;
        Thigh           5000;
        Tcommon         1000;
        highCpCoeffs    ( 19.3963 0.0488137 -1.55798e-05 2.17831e-09 -1.08391e-13 -37133.9 -78.8531 );
        lowCpCoeffs     ( 0.429357 0.0765769 8.41306e-06 -5.86603e-08 2.79414e-11 -30446.4 25.6735 );
    }
    transport
    {
        mu              1e-5;
        Pr              1;
    }
}

oxidant
{
    specie
    {
        molWeight       28.8504;
    }
    thermodynamics
    {
        Tlow            200;
        Thigh           6000;
        Tcommon         1000;
        highCpCoeffs    ( 3.10205 0.00123963 -4.17512e-07 6.60292e-11 -3.87448e-15 -985.517 5.35187 );
        lowCpCoeffs     ( 3.58378 -0.0007269 1.66985e-06 -1.08452e-10 -4.31951e-13 -1050.53 3.11223 );
    }
    transport
    {
        mu              1e-5;
        Pr              1;
    }
}

burntProducts
{
    specie
    {
        molWeight       28.6068;
    }
    thermodynamics
    {
        Tlow            200;
        Thigh           6000;
        Tcommon         1000;
        highCpCoeffs    ( 3.12468 0.00178578 -5.94695e-07 9.09801e-11 -5.1246e-15 -11005.8 5.03593 );
        lowCpCoeffs     ( 3.47612 0.000758205 -3.68739e-07 1.3449e-09 -8.08868e-13 -11071.5 3.3058 );
    }
    transport
    {
        mu              1e-5;
        Pr              1;
    }
}


reactants
{
    specie
    {
        molWeight       29.4649;
    }
    thermodynamics
    {
        Tlow            200;
        Thigh           6000;
        Tcommon         1000;
        highCpCoeffs    (3.24515 0.00202212 -6.98806e-07 1.11477e-10 -6.60444e-15 -1601.58 4.60831);
        lowCpCoeffs     (3.60909 -0.000628822 4.45105e-06 -3.81328e-09 1.0553e-12 -1587.86 3.21309);
    }
    transport
    {
        mu              1e-5;
        Pr              1;
    }
}

products
{
    specie
    {
        molWeight       28.3233;
    }
    thermodynamics
    {
        Tlow            200;
        Thigh           6000;
        Tcommon         1000;
        highCpCoeffs    (3.10561 0.00179748 -5.94701e-07 9.05612e-11 -5.08447e-15 -11003.6 5.12109);
        lowCpCoeffs     (3.498 0.000638554 -1.83885e-07 1.20991e-09 -7.68702e-13 -11080.6 3.1819);
    }
    transport
    {
        mu              1e-5;
        Pr              1;
    }
}


// ************************************************************************* //
