/*--------------------------------*- C++ -*----------------------------------*\
  =========                 |
  \\      /  F ield         | OpenFOAM: The Open Source CFD Toolbox
   \\    /   O peration     | Website:  https://openfoam.org
    \\  /    A nd           | Version:  dev
     \\/     M anipulation  |
\*---------------------------------------------------------------------------*/
FoamFile
{
    format      ascii;
    class       volScalarField;
    location    "0";
    object      CH4;
}
// * * * * * * * * * * * * * * * * * * * * * * * * * * * * * * * * * * * * * //

dimensions      [];

internalField
{
    type        zonal;

    defaultValue    0;

    zones
    {
        fuel
        {
            type            box;
            box             (0 -10 -100) (0.0036 10 0);
            value           0.1561;
        }
    }
}

boundaryField
{
    inletCH4
    {
        type            fixedValue;
        value           uniform 0.1561;
    }

    wallOutside
    {
        type            zeroGradient;
    }

    wallTube
    {
        type            zeroGradient;
    }

    inletPilot
    {
        type            fixedValue;
        value           uniform 0;
    }

    inletAir
    {
        type            fixedValue;
        value           uniform 0;
    }

    outlet
    {
        type            inletOutlet;
        inletValue      uniform 0;
    }

    frontAndBack_pos
    {
        type            wedge;
    }

    frontAndBack_neg
    {
        type            wedge;
    }
}


// ************************************************************************* //
