/*--------------------------------*- C++ -*----------------------------------*\
  =========                 |
  \\      /  F ield         | OpenFOAM: The Open Source CFD Toolbox
   \\    /   O peration     | Website:  https://openfoam.org
    \\  /    A nd           | Version:  dev
     \\/     M anipulation  |
\*---------------------------------------------------------------------------*/
FoamFile
{
    format      ascii;
    class       volScalarField;
    location    "0";
    object      k;
}
// * * * * * * * * * * * * * * * * * * * * * * * * * * * * * * * * * * * * * //

dimensions      [turbulentKineticEnergy];

internalField   uniform 30;

boundaryField
{
    wallTube
    {
        type            kqRWallFunction;
        value           uniform 30;
    }

    outlet
    {
        type            inletOutlet;
        inletValue      $internalField;
    }

    inletPilot
    {
        type            turbulentKineticEnergy;
        intensity       0.0628;
        value           uniform 1;
    }

    inletAir
    {
        type            turbulentKineticEnergy;
        intensity       0.0471;
        value           uniform 1;
    }

    wallOutside
    {
        type            kqRWallFunction;
        value           uniform 30;
    }

    inletCH4
    {
        type            turbulentKineticEnergy;
        intensity       0.0458;
        value           uniform 1;
    }

    frontAndBack_pos
    {
        type            wedge;
    }

    frontAndBack_neg
    {
        type            wedge;
    }
}


// ************************************************************************* //
