/*--------------------------------*- C++ -*----------------------------------*\
| =========                 |                                                 |
| \\      /  F ield         | OpenFOAM: The Open Source CFD Toolbox           |
|  \\    /   O peration     | Version:  dev                                   |
|   \\  /    A nd           | Website:  https://openfoam.org                  |
|    \\/     M anipulation  |                                                 |
\*---------------------------------------------------------------------------*/
FoamFile
{
    version     2.0;
    format      ascii;
    class       volScalarField;
    object      rho;
}
// * * * * * * * * * * * * * * * * * * * * * * * * * * * * * * * * * * * * * //

dimensions      [1 -3 0 0 0];

internalField   uniform 845;

boundaryField
{
    inlet
    {
        type            fixedValue;
        value           uniform 845;
    }

    outlet
    {
        type            fixedValue;
        value           uniform 835;
    }

    walls
    {
        type            zeroGradient;
    }

    frontBack
    {
        type            zeroGradient;
    }
}

// ************************************************************************* //
