/*--------------------------------*- C++ -*----------------------------------*\
  =========                 |
  \\      /  F ield         | OpenFOAM: The Open Source CFD Toolbox
   \\    /   O peration     | Website:  https://openfoam.org
    \\  /    A nd           | Version:  dev
     \\/     M anipulation  |
\*---------------------------------------------------------------------------*/
FoamFile
{
    format      ascii;
    class       volScalarField;
    location    "templates/0/fluid";
    object      p_rgh;
}
// * * * * * * * * * * * * * * * * * * * * * * * * * * * * * * * * * * * * * //

dimensions      [pressure];

internalField   uniform 0;

boundaryField
{
    outlet
    {
        type            entrainmentPressure;
        p0              $internalField;
        value           $internalField;
    }

    inlet
    {
        type            fixedFluxPressure;
        value           $internalField;
    }

    wall
    {
        $inlet;
    }

    #includeEtc "caseDicts/setConstraintTypes"
}


// ************************************************************************* //
