/*--------------------------------*- C++ -*----------------------------------*\
  =========                 |
  \\      /  F ield         | OpenFOAM: The Open Source CFD Toolbox
   \\    /   O peration     | Website:  https://openfoam.org
    \\  /    A nd           | Version:  dev
     \\/     M anipulation  |
\*---------------------------------------------------------------------------*/
FoamFile
{
    format      ascii;
    class       volScalarField;
    object      delta;
}
// * * * * * * * * * * * * * * * * * * * * * * * * * * * * * * * * * * * * * //

dimensions      [0 1 0 0 0 0 0];

internalField   uniform 0;

boundaryField
{
    #includeEtc "caseDicts/setConstraintTypes"

    wall
    {
        type            zeroGradient;
    }

    surface
    {
        type            zeroGradient;
    }

    bottom
    {
        type            inletOutlet;
        inletValue      $internalField;
    }

    atmosphere
    {
        type            inletOutlet;
        inletValue      $internalField;
    }
}


// ************************************************************************* //
