/*--------------------------------*- C++ -*----------------------------------*\
  =========                 |
  \\      /  F ield         | OpenFOAM: The Open Source CFD Toolbox
   \\    /   O peration     | Website:  https://openfoam.org
    \\  /    A nd           | Version:  dev
     \\/     M anipulation  |
\*---------------------------------------------------------------------------*/
FoamFile
{
    version     2.0;
    format      ascii;
    class       volScalarField;
    object      p_rgh;
}
// * * * * * * * * * * * * * * * * * * * * * * * * * * * * * * * * * * * * * //

dimensions      [1 -1 -2 0 0 0 0];

internalField   uniform 1e5;

boundaryField
{
    #includeEtc "caseDicts/setConstraintTypes"

    inlet
    {
        type            fixedFluxPressure;
        value           $internalField;
    }

    outlet
    {
        type            prghTotalPressure;
        U               U.vapor;
        rho             thermo:rho.vapor;
        p0              uniform 1e5;
        value           $internalField;
    }

    wall
    {
        type            fixedFluxPressure;
        value           $internalField;
    }
}

// ************************************************************************* //
