/*--------------------------------*- C++ -*----------------------------------*\
  =========                 |
  \\      /  F ield         | OpenFOAM: The Open Source CFD Toolbox
   \\    /   O peration     | Website:  https://openfoam.org
    \\  /    A nd           | Version:  dev
     \\/     M anipulation  |
\*---------------------------------------------------------------------------*/
FoamFile
{
    format      ascii;
    class       dictionary;
    location    "system";
    object      extrudeMeshDict.2;
}
// * * * * * * * * * * * * * * * * * * * * * * * * * * * * * * * * * * * * * //

constructFrom mesh;
sourceCase "$FOAM_CASE";
sourcePatches (outlet);

flipNormals false;

extrudeModel
{
    type            linearDirection;

    nLayers         40;
    expansionRatio  1.0;

    axisPt          (0 0 0);
    direction       (1 -0.2 -0.03);
    thickness       40;
}

mergeFaces false;

// ************************************************************************* //
