/*--------------------------------*- C++ -*----------------------------------*\
| =========                 |                                                 |
| \\      /  F ield         | OpenFOAM: The Open Source CFD Toolbox           |
|  \\    /   O peration     | Version:  dev                                   |
|   \\  /    A nd           | Website:  https://openfoam.org                  |
|    \\/     M anipulation  |                                                 |
\*---------------------------------------------------------------------------*/
FoamFile
{
    version     2.0;
    format      ascii;
    class       dictionary;
    object      postProcessingDict;
}
// * * * * * * * * * * * * * * * * * * * * * * * * * * * * * * * * * * * * * //

functions
{
    processorField1
    {
        // Type of functionObject
        type            processorField;

        // Where to load it from (if not already in solver)
        libs            ("libfieldFunctionObjects.so");

        // Function object enabled flag
        enabled         true;

        // When to output the average fields
        writeControl    writeTime;
    }
}

// ************************************************************************* //
