/*--------------------------------*- C++ -*----------------------------------*\
  =========                 |
  \\      /  F ield         | OpenFOAM: The Open Source CFD Toolbox
   \\    /   O peration     | Website:  https://openfoam.org
    \\  /    A nd           | Version:  dev
     \\/     M anipulation  |
\*---------------------------------------------------------------------------*/
FoamFile
{
    format      ascii;
    class       volScalarField;
    location    "0";
    object      p;
}
// * * * * * * * * * * * * * * * * * * * * * * * * * * * * * * * * * * * * * //

dimensions      [1 -1 -2 0 0 0 0];

internalField   uniform 0;

boundaryField
{
    left
    {
        type            calculated;
        value           $internalField;
    }
    right
    {
        type            calculated;
        value           $internalField;
    }
    bottom
    {
        type            calculated;
        value           $internalField;
    }
    top
    {
        type            calculated;
        value           $internalField;
    }
    frontBack
    {
        type            empty;
    }
}


// ************************************************************************* //
