/*--------------------------------*- C++ -*----------------------------------*\
  =========                 |
  \\      /  F ield         | OpenFOAM: The Open Source CFD Toolbox
   \\    /   O peration     | Website:  https://openfoam.org
    \\  /    A nd           | Version:  dev
     \\/     M anipulation  |
\*---------------------------------------------------------------------------*/
FoamFile
{
    format      ascii;
    class       volScalarField;
    location    "0";
    object      p_rgh;
}
// * * * * * * * * * * * * * * * * * * * * * * * * * * * * * * * * * * * * * //

dimensions          [pressure];

internalField       uniform 1e5;

boundaryField
{
    inlet
    {
        type            fixedFluxPressure;
        value           $internalField;
    }
    outlet
    {
        type            prghTotalPressure;
        p0              $internalField;
        U               U.air;
        phi             phi.air;
        rho             rho.air;
        value           $internalField;
    }
    walls
    {
        type            fixedFluxPressure;
        value           $internalField;
    }
}

// ************************************************************************* //
