/*--------------------------------*- C++ -*----------------------------------*\
  =========                 |
  \\      /  F ield         | OpenFOAM: The Open Source CFD Toolbox
   \\    /   O peration     | Website:  https://openfoam.org
    \\  /    A nd           | Version:  dev
     \\/     M anipulation  |
\*---------------------------------------------------------------------------*/
FoamFile
{
    format      ascii;
    class       dictionary;
    location    "system";
    object      decomposeParDict;
}
// * * * * * * * * * * * * * * * * * * * * * * * * * * * * * * * * * * * * * //

numberOfSubdomains 12;

decomposer      simple;
distributor     zoltan;
libs            ("libzoltanDecomp.so");

simpleCoeffs
{
    n           (2 2 3);
}

hierarchicalCoeffs
{
    n           (2 2 3);
    order       xyz;
}

zoltanCoeffs
{
    lb_method   rcb;
}


// ************************************************************************* //
