/*--------------------------------*- C++ -*----------------------------------*\
| =========                 |                                                 |
| \\      /  F ield         | OpenFOAM: The Open Source CFD Toolbox           |
|  \\    /   O peration     | Version:  dev                                   |  
|   \\  /    A nd           | Web:      www.OpenFOAM.org                      |
|    \\/     M anipulation  |                                                 |
\*---------------------------------------------------------------------------*/
FoamFile
{
    version     2.0;
    format      ascii;
    class       dictionary;
    object      pressureDifferenceSurface;
}
// * * * * * * * * * * * * * * * * * * * * * * * * * * * * * * * * * * * * * //

pressureDifferenceSurface
{
    triSurface1 <triSurface1>;
    triSurface2 <triSurface2>;

    #includeEtc
    "caseDicts/postProcessing/pressure/pressureDifferenceSurface.cfg"
}

// ************************************************************************* //
