/*--------------------------------*- C++ -*----------------------------------*\
| =========                 |                                                 |
| \\      /  F ield         | OpenFOAM: The Open Source CFD Toolbox           |
|  \\    /   O peration     | Version:  dev                                   |  
|   \\  /    A nd           | Web:      www.OpenFOAM.org                      |
|    \\/     M anipulation  |                                                 |
\*---------------------------------------------------------------------------*/
FoamFile
{
    version     2.0;
    format      ascii;
    class       dictionary;
    object      totalPressureIncompressible;
}
// * * * * * * * * * * * * * * * * * * * * * * * * * * * * * * * * * * * * * //

totalPressure
{
    pRef  0.0;
    rho   1.2;

    #includeEtc
    "caseDicts/postProcessing/pressure/totalPressureIncompressible.cfg"
}

// ************************************************************************* //
