/*--------------------------------*- C++ -*----------------------------------*\
  =========                 |
  \\      /  F ield         | OpenFOAM: The Open Source CFD Toolbox
   \\    /   O peration     | Website:  https://openfoam.org
    \\  /    A nd           | Version:  dev
     \\/     M anipulation  |
\*---------------------------------------------------------------------------*/
FoamFile
{
    version     2.0;
    format      ascii;
    class       dictionary;
    location    "system/wallFilmRegion";
    object      fvSchemes;
}
// * * * * * * * * * * * * * * * * * * * * * * * * * * * * * * * * * * * * * //

ddtSchemes
{
    default none;
    ddt(deltaf*rhof) Euler;
    ddt(rhof,deltaf) Euler;
    ddt(deltaf*rhof,Uf) Euler;
    ddt(deltaf*rhof,hf) Euler;
}

divSchemes
{
    default none;
    div(phi,Uf) Gauss upwind;
    div(phid,deltaf) Gauss upwind;
    div(phi,hf) Gauss upwind;
}

gradSchemes
{
    default none;
    grad(pL) Gauss linear;
    grad(sigmaf) Gauss linear;
    snGradCorr(deltaf) Gauss linear;
    snGradCorr(pp) Gauss linear;
    snGradCorr(pu) Gauss linear;
    grad(nHat) Gauss linear;

    grad(alpha) Gauss linear;
}

laplacianSchemes
{
    default none;
    laplacian(sigmaf,deltaf) Gauss linear orthogonal;
    laplacian(deltaCoeff,deltaf) Gauss linear orthogonal;
}

snGradSchemes
{
    snGrad(p) orthogonal;
    snGrad(deltaf) orthogonal;
}


// ************************************************************************* //
