/*--------------------------------*- C++ -*----------------------------------*\
  =========                 |
  \\      /  F ield         | OpenFOAM: The Open Source CFD Toolbox
   \\    /   O peration     | Website:  https://openfoam.org
    \\  /    A nd           | Version:  dev
     \\/     M anipulation  |
\*---------------------------------------------------------------------------*/
FoamFile
{
    format      ascii;
    class       dictionary;
    location    "system";
    object      controlDict;
}
// * * * * * * * * * * * * * * * * * * * * * * * * * * * * * * * * * * * * * //

application     foamRun;

solver          incompressibleFluid;

startFrom       startTime;

startTime       0;

stopAt          endTime;

endTime         5;

deltaT          1e-3;

writeControl    adjustableRunTime;

writeInterval   0.05;

purgeWrite      0;

writeFormat     ascii;

writePrecision  6;

writeCompression off;

timeFormat      general;

timePrecision   6;

runTimeModifiable true;

adjustTimeStep  yes;

maxCo           0.5;

functions
{
    cartesianToCylindrical
    {
        type        cylindrical;
        libs        ("libfieldFunctionObjects.so");

        origin      (0 0 0);
        axis        (0 0 1);

        field       U;

        writeControl    writeTime;
        writeInterval   1;
    }

    #includeFunc fieldAverage(cylindrical(U))

    cylindricalToCartesian
    {
        type        cylindrical;
        libs        ("libfieldFunctionObjects.so");

        origin      (0 0 0);
        axis        (0 0 1);

        field       cylindrical(U)Mean;
        toCartesian true;
        result      UMean;

        writeControl    writeTime;
        writeInterval   1;
    }
}


// ************************************************************************* //
