/*--------------------------------*- C++ -*----------------------------------*\
  =========                 |
  \\      /  F ield         | OpenFOAM: The Open Source CFD Toolbox
   \\    /   O peration     | Website:  https://openfoam.org
    \\  /    A nd           | Version:  dev
     \\/     M anipulation  |
\*---------------------------------------------------------------------------*/
FoamFile
{
    format      ascii;
    class       volScalarField;
    location    "0";
    object      k;
}
// * * * * * * * * * * * * * * * * * * * * * * * * * * * * * * * * * * * * * //

dimensions      [turbulentKineticEnergy];

internalField   uniform 0.135;

boundaryField
{
    #includeEtc "caseDicts/setConstraintTypes"

    inlet
    {
        type            turbulentKineticEnergy;
        intensity       0.05;
        value           $internalField;
    }
    lowerOutlet
    {
        type            turbulentKineticEnergy;
        intensity       0.05;
        value           $internalField;
    }
    upperOutlet
    {
        type            turbulentKineticEnergy;
        intensity       0.05;
        value           $internalField;
    }
    wall
    {
        type            kqRWallFunction;
        value           $internalField;
    }
}


// ************************************************************************* //
