/*--------------------------------*- C++ -*----------------------------------*\
| =========                 |                                                 |
| \\      /  F ield         | OpenFOAM: The Open Source CFD Toolbox           |
|  \\    /   O peration     | Version:  dev                                   |
|   \\  /    A nd           | Website:  https://openfoam.org                  |
|    \\/     M anipulation  |                                                 |
\*---------------------------------------------------------------------------*/
FoamFile
{
    version     2.0;
    format      binary;
    class       volScalarField;
    location    "0";
    object      p_rgh;
}
// * * * * * * * * * * * * * * * * * * * * * * * * * * * * * * * * * * * * * //

dimensions      [1 -1 -2 0 0 0 0];

internalField   uniform 125000;

boundaryField
{
    vessel
    {
        type            fixedFluxPressure;
        gradient        uniform 0;
        value           uniform 125000;
    }
    gasInlet
    {
        type            fixedFluxPressure;
        gradient        uniform 0;
        value           uniform 125000;
    }
    outlet
    {
        type            fixedValue;
        value           uniform 125000;
    }
    shaftRotating
    {
        type            fixedFluxPressure;
        gradient        uniform 0;
        value           uniform 125000;
    }
    shaft
    {
        type            fixedFluxPressure;
        gradient        uniform 0;
        value           uniform 125000;
    }
    sparger
    {
        type            fixedFluxPressure;
        gradient        uniform 0;
        value           uniform 125000;
    }
    stirrer
    {
        type            fixedFluxPressure;
        gradient        uniform 0;
        value           uniform 125000;
    }
    baffles
    {
        type            fixedFluxPressure;
        gradient        uniform 0;
        value           uniform 125000;
    }
    AMI1
    {
        type            cyclicAMI;
        value           uniform 0;
    }
    AMI2
    {
        type            cyclicAMI;
        value           uniform 0;
    }
}


// ************************************************************************* //
