/*--------------------------------*- C++ -*----------------------------------*\
| =========                 |                                                 |
| \\      /  F ield         | OpenFOAM: The Open Source CFD Toolbox           |
|  \\    /   O peration     | Version:  dev                                   |
|   \\  /    A nd           | Web:      www.OpenFOAM.org                      |
|    \\/     M anipulation  |                                                 |
\*---------------------------------------------------------------------------*/
FoamFile
{
    version     2.0;
    format      ascii;
    class       dictionary;
    location    "constant";
    object      fvOptions;
}
// * * * * * * * * * * * * * * * * * * * * * * * * * * * * * * * * * * * * * //

porosity1
{
    type            explicitPorositySource;
    active          yes;

    explicitPorositySourceCoeffs
    {
        selectionMode   cellZone;
        cellZone        porosity;

        type            DarcyForchheimer;

        DarcyForchheimerCoeffs
        {
            d   d [0 -2 0 0 0 0 0] (7e5 -1000 -1000);
            f   f [0 -1 0 0 0 0 0] (0 0 0);

            coordinateSystem
            {
                type    cartesian;
                origin  (0 0 0);
                coordinateRotation
                {
                    type    axesRotation;
                    e1  (0.70710678 0.70710678 0);
                    e3  (0 0 1);
                }
            }
        }
    }
}


//************************************************************************ //
