/*--------------------------------*- C++ -*----------------------------------*\
  =========                 |
  \\      /  F ield         | OpenFOAM: The Open Source CFD Toolbox
   \\    /   O peration     | Website:  https://openfoam.org
    \\  /    A nd           | Version:  dev
     \\/     M anipulation  |
\*---------------------------------------------------------------------------*/
FoamFile
{
    format      ascii;
    class       vectorField;
    object      cloudPositions;
}
// * * * * * * * * * * * * * * * * * * * * * * * * * * * * * * * * * * * * * //

(
(0.0223075 0.00293684 0)
(0.0207873 0.00861038 0)
(0.0178505 0.0136971 0)
(0.0136971 0.0178505 0)
(0.00861038 0.0207873 0)
(0.00293684 0.0223075 0)
(-0.00293684 0.0223075 0)
(-0.00861038 0.0207873 0)
(-0.0136971 0.0178505 0)
(-0.0178505 0.0136971 0)
(-0.0207873 0.00861038 0)
(-0.0223075 0.00293684 0)
(-0.0223075 -0.00293684 0)
(-0.0207873 -0.00861038 0)
(-0.0178505 -0.0136971 0)
(-0.0136971 -0.0178505 0)
(-0.00861038 -0.0207873 0)
(-0.00293684 -0.0223075 0)
(0.00293684 -0.0223075 0)
(0.00861038 -0.0207873 0)
(0.0136971 -0.0178505 0)
(0.0178505 -0.0136971 0)
(0.0207873 -0.00861038 0)
(0.0223075 -0.00293684 0)
(0.0273676 0.00269547 0)
(0.0263159 0.00798283 0)
(0.0242528 0.0129634 0)
(0.0212578 0.0174458 0)
(0.0174458 0.0212578 0)
(0.0129634 0.0242528 0)
(0.00798283 0.0263159 0)
(0.00269547 0.0273676 0)
(-0.00269547 0.0273676 0)
(-0.00798283 0.0263159 0)
(-0.0129634 0.0242528 0)
(-0.0174458 0.0212578 0)
(-0.0212578 0.0174458 0)
(-0.0242528 0.0129634 0)
(-0.0263159 0.00798283 0)
(-0.0273676 0.00269547 0)
(-0.0273676 -0.00269547 0)
(-0.0263159 -0.00798283 0)
(-0.0242528 -0.0129634 0)
(-0.0212578 -0.0174458 0)
(-0.0174458 -0.0212578 0)
(-0.0129634 -0.0242528 0)
(-0.00798283 -0.0263159 0)
(-0.00269547 -0.0273676 0)
(0.00269547 -0.0273676 0)
(0.00798283 -0.0263159 0)
(0.0129634 -0.0242528 0)
(0.0174458 -0.0212578 0)
(0.0212578 -0.0174458 0)
(0.0242528 -0.0129634 0)
(0.0263159 -0.00798283 0)
(0.0273676 -0.00269547 0)
(0.0323998 0.00254992 0)
(0.031602 0.00758697 0)
(0.0300261 0.0124372 0)
(0.0277108 0.0169812 0)
(0.0247132 0.0211071 0)
(0.0211071 0.0247132 0)
(0.0169812 0.0277108 0)
(0.0124372 0.0300261 0)
(0.00758697 0.031602 0)
(0.00254992 0.0323998 0)
(-0.00254992 0.0323998 0)
(-0.00758697 0.031602 0)
(-0.0124372 0.0300261 0)
(-0.0169812 0.0277108 0)
(-0.0211071 0.0247132 0)
(-0.0247132 0.0211071 0)
(-0.0277108 0.0169812 0)
(-0.0300261 0.0124372 0)
(-0.031602 0.00758697 0)
(-0.0323998 0.00254992 0)
(-0.0323998 -0.00254992 0)
(-0.031602 -0.00758697 0)
(-0.0300261 -0.0124372 0)
(-0.0277108 -0.0169812 0)
(-0.0247132 -0.0211071 0)
(-0.0211071 -0.0247132 0)
(-0.0169812 -0.0277108 0)
(-0.0124372 -0.0300261 0)
(-0.00758697 -0.031602 0)
(-0.00254992 -0.0323998 0)
(0.00254992 -0.0323998 0)
(0.00758697 -0.031602 0)
(0.0124372 -0.0300261 0)
(0.0169812 -0.0277108 0)
(0.0211071 -0.0247132 0)
(0.0247132 -0.0211071 0)
(0.0277108 -0.0169812 0)
(0.0300261 -0.0124372 0)
(0.031602 -0.00758697 0)
(0.0323998 -0.00254992 0)
(0.0373844 0.00294222 0)
(0.0364639 0.0087542 0)
(0.0346455 0.0143506 0)
(0.031974 0.0195937 0)
(0.0285152 0.0243543 0)
(0.0243543 0.0285152 0)
(0.0195937 0.031974 0)
(0.0143506 0.0346455 0)
(0.0087542 0.0364639 0)
(0.00294222 0.0373844 0)
(-0.00294222 0.0373844 0)
(-0.0087542 0.0364639 0)
(-0.0143506 0.0346455 0)
(-0.0195937 0.031974 0)
(-0.0243543 0.0285152 0)
(-0.0285152 0.0243543 0)
(-0.031974 0.0195937 0)
(-0.0346455 0.0143506 0)
(-0.0364639 0.0087542 0)
(-0.0373844 0.00294222 0)
(-0.0373844 -0.00294222 0)
(-0.0364639 -0.0087542 0)
(-0.0346455 -0.0143506 0)
(-0.031974 -0.0195937 0)
(-0.0285152 -0.0243543 0)
(-0.0243543 -0.0285152 0)
(-0.0195937 -0.031974 0)
(-0.0143506 -0.0346455 0)
(-0.0087542 -0.0364639 0)
(-0.00294222 -0.0373844 0)
(0.00294222 -0.0373844 0)
(0.0087542 -0.0364639 0)
(0.0143506 -0.0346455 0)
(0.0195937 -0.031974 0)
(0.0243543 -0.0285152 0)
(0.0285152 -0.0243543 0)
(0.031974 -0.0195937 0)
(0.0346455 -0.0143506 0)
(0.0364639 -0.0087542 0)
(0.0373844 -0.00294222 0)
(0.042409 0.00277963 0)
(0.0416834 0.00829134 0)
(0.0402445 0.0136612 0)
(0.0381171 0.0187973 0)
(0.0353375 0.0236117 0)
(0.0319532 0.0280222 0)
(0.0280222 0.0319532 0)
(0.0236117 0.0353375 0)
(0.0187973 0.0381171 0)
(0.0136612 0.0402445 0)
(0.00829134 0.0416834 0)
(0.00277963 0.042409 0)
(-0.00277963 0.042409 0)
(-0.00829134 0.0416834 0)
(-0.0136612 0.0402445 0)
(-0.0187973 0.0381171 0)
(-0.0236117 0.0353375 0)
(-0.0280222 0.0319532 0)
(-0.0319532 0.0280222 0)
(-0.0353375 0.0236117 0)
(-0.0381171 0.0187973 0)
(-0.0402445 0.0136612 0)
(-0.0416834 0.00829134 0)
(-0.042409 0.00277963 0)
(-0.042409 -0.00277963 0)
(-0.0416834 -0.00829134 0)
(-0.0402445 -0.0136612 0)
(-0.0381171 -0.0187973 0)
(-0.0353375 -0.0236117 0)
(-0.0319532 -0.0280222 0)
(-0.0280222 -0.0319532 0)
(-0.0236117 -0.0353375 0)
(-0.0187973 -0.0381171 0)
(-0.0136612 -0.0402445 0)
(-0.00829134 -0.0416834 0)
(-0.00277963 -0.042409 0)
(0.00277963 -0.042409 0)
(0.00829134 -0.0416834 0)
(0.0136612 -0.0402445 0)
(0.0187973 -0.0381171 0)
(0.0236117 -0.0353375 0)
(0.0280222 -0.0319532 0)
(0.0319532 -0.0280222 0)
(0.0353375 -0.0236117 0)
(0.0381171 -0.0187973 0)
(0.0402445 -0.0136612 0)
(0.0416834 -0.00829134 0)
(0.042409 -0.00277963 0)
(0.0474253 0.00266335 0)
(0.0468289 0.00795655 0)
(0.0456436 0.0131497 0)
(0.0438843 0.0181775 0)
(0.0415731 0.0229766 0)
(0.0387391 0.0274869 0)
(0.035418 0.0316515 0)
(0.0316515 0.035418 0)
(0.0274869 0.0387391 0)
(0.0229766 0.0415731 0)
(0.0181775 0.0438843 0)
(0.0131497 0.0456436 0)
(0.00795655 0.0468289 0)
(0.00266335 0.0474253 0)
(-0.00266335 0.0474253 0)
(-0.00795655 0.0468289 0)
(-0.0131497 0.0456436 0)
(-0.0181775 0.0438843 0)
(-0.0229766 0.0415731 0)
(-0.0274869 0.0387391 0)
(-0.0316515 0.035418 0)
(-0.035418 0.0316515 0)
(-0.0387391 0.0274869 0)
(-0.0415731 0.0229766 0)
(-0.0438843 0.0181775 0)
(-0.0456436 0.0131497 0)
(-0.0468289 0.00795655 0)
(-0.0474253 0.00266335 0)
(-0.0474253 -0.00266335 0)
(-0.0468289 -0.00795655 0)
(-0.0456436 -0.0131497 0)
(-0.0438843 -0.0181775 0)
(-0.0415731 -0.0229766 0)
(-0.0387391 -0.0274869 0)
(-0.035418 -0.0316515 0)
(-0.0316515 -0.035418 0)
(-0.0274869 -0.0387391 0)
(-0.0229766 -0.0415731 0)
(-0.0181775 -0.0438843 0)
(-0.0131497 -0.0456436 0)
(-0.00795655 -0.0468289 0)
(-0.00266335 -0.0474253 0)
(0.00266335 -0.0474253 0)
(0.00795655 -0.0468289 0)
(0.0131497 -0.0456436 0)
(0.0181775 -0.0438843 0)
(0.0229766 -0.0415731 0)
(0.0274869 -0.0387391 0)
(0.0316515 -0.035418 0)
(0.035418 -0.0316515 0)
(0.0387391 -0.0274869 0)
(0.0415731 -0.0229766 0)
(0.0438843 -0.0181775 0)
(0.0456436 -0.0131497 0)
(0.0468289 -0.00795655 0)
(0.0474253 -0.00266335 0)
(0.0524368 0.00257605 0)
(0.0519318 0.00770335 0)
(0.0509266 0.0127565 0)
(0.0494311 0.0176867 0)
(0.0474594 0.0224466 0)
(0.0450308 0.0269904 0)
(0.0421684 0.0312742 0)
(0.0388999 0.0352568 0)
(0.0352568 0.0388999 0)
(0.0312742 0.0421684 0)
(0.0269904 0.0450308 0)
(0.0224466 0.0474594 0)
(0.0176867 0.0494311 0)
(0.0127565 0.0509266 0)
(0.00770335 0.0519318 0)
(0.00257605 0.0524368 0)
(-0.00257605 0.0524368 0)
(-0.00770335 0.0519318 0)
(-0.0127565 0.0509266 0)
(-0.0176867 0.0494311 0)
(-0.0224466 0.0474594 0)
(-0.0269904 0.0450308 0)
(-0.0312742 0.0421684 0)
(-0.0352568 0.0388999 0)
(-0.0388999 0.0352568 0)
(-0.0421684 0.0312742 0)
(-0.0450308 0.0269904 0)
(-0.0474594 0.0224466 0)
(-0.0494311 0.0176867 0)
(-0.0509266 0.0127565 0)
(-0.0519318 0.00770335 0)
(-0.0524368 0.00257605 0)
(-0.0524368 -0.00257605 0)
(-0.0519318 -0.00770335 0)
(-0.0509266 -0.0127565 0)
(-0.0494311 -0.0176867 0)
(-0.0474594 -0.0224466 0)
(-0.0450308 -0.0269904 0)
(-0.0421684 -0.0312742 0)
(-0.0388999 -0.0352568 0)
(-0.0352568 -0.0388999 0)
(-0.0312742 -0.0421684 0)
(-0.0269904 -0.0450308 0)
(-0.0224466 -0.0474594 0)
(-0.0176867 -0.0494311 0)
(-0.0127565 -0.0509266 0)
(-0.00770335 -0.0519318 0)
(-0.00257605 -0.0524368 0)
(0.00257605 -0.0524368 0)
(0.00770335 -0.0519318 0)
(0.0127565 -0.0509266 0)
(0.0176867 -0.0494311 0)
(0.0224466 -0.0474594 0)
(0.0269904 -0.0450308 0)
(0.0312742 -0.0421684 0)
(0.0352568 -0.0388999 0)
(0.0388999 -0.0352568 0)
(0.0421684 -0.0312742 0)
(0.0450308 -0.0269904 0)
(0.0474594 -0.0224466 0)
(0.0494311 -0.0176867 0)
(0.0509266 -0.0127565 0)
(0.0519318 -0.00770335 0)
(0.0524368 -0.00257605 0)
(0.0574453 0.00250811 0)
(0.0570081 0.00750526 0)
(0.056137 0.0124453 0)
(0.0548387 0.0172906 0)
(0.0531231 0.0220043 0)
(0.0510031 0.0265505 0)
(0.048495 0.0308947 0)
(0.0456178 0.0350038 0)
(0.0423934 0.0388464 0)
(0.0388464 0.0423934 0)
(0.0350038 0.0456178 0)
(0.0308947 0.048495 0)
(0.0265505 0.0510031 0)
(0.0220043 0.0531231 0)
(0.0172906 0.0548387 0)
(0.0124453 0.056137 0)
(0.00750526 0.0570081 0)
(0.00250811 0.0574453 0)
(-0.00250811 0.0574453 0)
(-0.00750526 0.0570081 0)
(-0.0124453 0.056137 0)
(-0.0172906 0.0548387 0)
(-0.0220043 0.0531231 0)
(-0.0265505 0.0510031 0)
(-0.0308947 0.048495 0)
(-0.0350038 0.0456178 0)
(-0.0388464 0.0423934 0)
(-0.0423934 0.0388464 0)
(-0.0456178 0.0350038 0)
(-0.048495 0.0308947 0)
(-0.0510031 0.0265505 0)
(-0.0531231 0.0220043 0)
(-0.0548387 0.0172906 0)
(-0.056137 0.0124453 0)
(-0.0570081 0.00750526 0)
(-0.0574453 0.00250811 0)
(-0.0574453 -0.00250811 0)
(-0.0570081 -0.00750526 0)
(-0.056137 -0.0124453 0)
(-0.0548387 -0.0172906 0)
(-0.0531231 -0.0220043 0)
(-0.0510031 -0.0265505 0)
(-0.048495 -0.0308947 0)
(-0.0456178 -0.0350038 0)
(-0.0423934 -0.0388464 0)
(-0.0388464 -0.0423934 0)
(-0.0350038 -0.0456178 0)
(-0.0308947 -0.048495 0)
(-0.0265505 -0.0510031 0)
(-0.0220043 -0.0531231 0)
(-0.0172906 -0.0548387 0)
(-0.0124453 -0.056137 0)
(-0.00750526 -0.0570081 0)
(-0.00250811 -0.0574453 0)
(0.00250811 -0.0574453 0)
(0.00750526 -0.0570081 0)
(0.0124453 -0.056137 0)
(0.0172906 -0.0548387 0)
(0.0220043 -0.0531231 0)
(0.0265505 -0.0510031 0)
(0.0308947 -0.048495 0)
(0.0350038 -0.0456178 0)
(0.0388464 -0.0423934 0)
(0.0423934 -0.0388464 0)
(0.0456178 -0.0350038 0)
(0.048495 -0.0308947 0)
(0.0510031 -0.0265505 0)
(0.0531231 -0.0220043 0)
(0.0548387 -0.0172906 0)
(0.056137 -0.0124453 0)
(0.0570081 -0.00750526 0)
(0.0574453 -0.00250811 0)
(0.0624405 0.00272621 0)
(0.0619653 0.00815789 0)
(0.0610185 0.0135275 0)
(0.0596073 0.0187941 0)
(0.0577425 0.0239177 0)
(0.0554382 0.0288593 0)
(0.052712 0.0335812 0)
(0.0495846 0.0380476 0)
(0.0460798 0.0422244 0)
(0.0422244 0.0460798 0)
(0.0380476 0.0495846 0)
(0.0335812 0.052712 0)
(0.0288593 0.0554382 0)
(0.0239177 0.0577425 0)
(0.0187941 0.0596073 0)
(0.0135275 0.0610185 0)
(0.00815789 0.0619653 0)
(0.00272621 0.0624405 0)
(-0.00272621 0.0624405 0)
(-0.00815789 0.0619653 0)
(-0.0135275 0.0610185 0)
(-0.0187941 0.0596073 0)
(-0.0239177 0.0577425 0)
(-0.0288593 0.0554382 0)
(-0.0335812 0.052712 0)
(-0.0380476 0.0495846 0)
(-0.0422244 0.0460798 0)
(-0.0460798 0.0422244 0)
(-0.0495846 0.0380476 0)
(-0.052712 0.0335812 0)
(-0.0554382 0.0288593 0)
(-0.0577425 0.0239177 0)
(-0.0596073 0.0187941 0)
(-0.0610185 0.0135275 0)
(-0.0619653 0.00815789 0)
(-0.0624405 0.00272621 0)
(-0.0624405 -0.00272621 0)
(-0.0619653 -0.00815789 0)
(-0.0610185 -0.0135275 0)
(-0.0596073 -0.0187941 0)
(-0.0577425 -0.0239177 0)
(-0.0554382 -0.0288593 0)
(-0.052712 -0.0335812 0)
(-0.0495846 -0.0380476 0)
(-0.0460798 -0.0422244 0)
(-0.0422244 -0.0460798 0)
(-0.0380476 -0.0495846 0)
(-0.0335812 -0.052712 0)
(-0.0288593 -0.0554382 0)
(-0.0239177 -0.0577425 0)
(-0.0187941 -0.0596073 0)
(-0.0135275 -0.0610185 0)
(-0.00815789 -0.0619653 0)
(-0.00272621 -0.0624405 0)
(0.00272621 -0.0624405 0)
(0.00815789 -0.0619653 0)
(0.0135275 -0.0610185 0)
(0.0187941 -0.0596073 0)
(0.0239177 -0.0577425 0)
(0.0288593 -0.0554382 0)
(0.0335812 -0.052712 0)
(0.0380476 -0.0495846 0)
(0.0422244 -0.0460798 0)
(0.0460798 -0.0422244 0)
(0.0495846 -0.0380476 0)
(0.052712 -0.0335812 0)
(0.0554382 -0.0288593 0)
(0.0577425 -0.0239177 0)
(0.0596073 -0.0187941 0)
(0.0610185 -0.0135275 0)
(0.0619653 -0.00815789 0)
(0.0624405 -0.00272621 0)
(0.067448 0.00265004 0)
(0.0670321 0.00793377 0)
(0.066203 0.0131686 0)
(0.0649657 0.0183222 0)
(0.0633279 0.0233629 0)
(0.0612997 0.0282595 0)
(0.0588935 0.0329819 0)
(0.0561242 0.037501 0)
(0.0530089 0.0417888 0)
(0.0495668 0.0458191 0)
(0.0458191 0.0495668 0)
(0.0417888 0.0530089 0)
(0.037501 0.0561242 0)
(0.0329819 0.0588935 0)
(0.0282595 0.0612997 0)
(0.0233629 0.0633279 0)
(0.0183222 0.0649657 0)
(0.0131686 0.066203 0)
(0.00793377 0.0670321 0)
(0.00265004 0.067448 0)
(-0.00265004 0.067448 0)
(-0.00793377 0.0670321 0)
(-0.0131686 0.066203 0)
(-0.0183222 0.0649657 0)
(-0.0233629 0.0633279 0)
(-0.0282595 0.0612997 0)
(-0.0329819 0.0588935 0)
(-0.037501 0.0561242 0)
(-0.0417888 0.0530089 0)
(-0.0458191 0.0495668 0)
(-0.0495668 0.0458191 0)
(-0.0530089 0.0417888 0)
(-0.0561242 0.037501 0)
(-0.0588935 0.0329819 0)
(-0.0612997 0.0282595 0)
(-0.0633279 0.0233629 0)
(-0.0649657 0.0183222 0)
(-0.066203 0.0131686 0)
(-0.0670321 0.00793377 0)
(-0.067448 0.00265004 0)
(-0.067448 -0.00265004 0)
(-0.0670321 -0.00793377 0)
(-0.066203 -0.0131686 0)
(-0.0649657 -0.0183222 0)
(-0.0633279 -0.0233629 0)
(-0.0612997 -0.0282595 0)
(-0.0588935 -0.0329819 0)
(-0.0561242 -0.037501 0)
(-0.0530089 -0.0417888 0)
(-0.0495668 -0.0458191 0)
(-0.0458191 -0.0495668 0)
(-0.0417888 -0.0530089 0)
(-0.037501 -0.0561242 0)
(-0.0329819 -0.0588935 0)
(-0.0282595 -0.0612997 0)
(-0.0233629 -0.0633279 0)
(-0.0183222 -0.0649657 0)
(-0.0131686 -0.066203 0)
(-0.00793377 -0.0670321 0)
(-0.00265004 -0.067448 0)
(0.00265004 -0.067448 0)
(0.00793377 -0.0670321 0)
(0.0131686 -0.066203 0)
(0.0183222 -0.0649657 0)
(0.0233629 -0.0633279 0)
(0.0282595 -0.0612997 0)
(0.0329819 -0.0588935 0)
(0.037501 -0.0561242 0)
(0.0417888 -0.0530089 0)
(0.0458191 -0.0495668 0)
(0.0495668 -0.0458191 0)
(0.0530089 -0.0417888 0)
(0.0561242 -0.037501 0)
(0.0588935 -0.0329819 0)
(0.0612997 -0.0282595 0)
(0.0633279 -0.0233629 0)
(0.0649657 -0.0183222 0)
(0.066203 -0.0131686 0)
(0.0670321 -0.00793377 0)
(0.067448 -0.00265004 0)
(0.0724538 0.00258769 0)
(0.0720846 0.0077499 0)
(0.0713481 0.0128726 0)
(0.070248 0.0179297 0)
(0.0687899 0.0228955 0)
(0.0669813 0.0277445 0)
(0.0648313 0.0324522 0)
(0.062351 0.0369946 0)
(0.059553 0.0413484 0)
(0.0564515 0.0454915 0)
(0.0530624 0.0494028 0)
(0.0494028 0.0530624 0)
(0.0454915 0.0564515 0)
(0.0413484 0.059553 0)
(0.0369946 0.062351 0)
(0.0324522 0.0648313 0)
(0.0277445 0.0669813 0)
(0.0228955 0.0687899 0)
(0.0179297 0.070248 0)
(0.0128726 0.0713481 0)
(0.0077499 0.0720846 0)
(0.00258769 0.0724538 0)
(-0.00258769 0.0724538 0)
(-0.0077499 0.0720846 0)
(-0.0128726 0.0713481 0)
(-0.0179297 0.070248 0)
(-0.0228955 0.0687899 0)
(-0.0277445 0.0669813 0)
(-0.0324522 0.0648313 0)
(-0.0369946 0.062351 0)
(-0.0413484 0.059553 0)
(-0.0454915 0.0564515 0)
(-0.0494028 0.0530624 0)
(-0.0530624 0.0494028 0)
(-0.0564515 0.0454915 0)
(-0.059553 0.0413484 0)
(-0.062351 0.0369946 0)
(-0.0648313 0.0324522 0)
(-0.0669813 0.0277445 0)
(-0.0687899 0.0228955 0)
(-0.070248 0.0179297 0)
(-0.0713481 0.0128726 0)
(-0.0720846 0.0077499 0)
(-0.0724538 0.00258769 0)
(-0.0724538 -0.00258769 0)
(-0.0720846 -0.0077499 0)
(-0.0713481 -0.0128726 0)
(-0.070248 -0.0179297 0)
(-0.0687899 -0.0228955 0)
(-0.0669813 -0.0277445 0)
(-0.0648313 -0.0324522 0)
(-0.062351 -0.0369946 0)
(-0.059553 -0.0413484 0)
(-0.0564515 -0.0454915 0)
(-0.0530624 -0.0494028 0)
(-0.0494028 -0.0530624 0)
(-0.0454915 -0.0564515 0)
(-0.0413484 -0.059553 0)
(-0.0369946 -0.062351 0)
(-0.0324522 -0.0648313 0)
(-0.0277445 -0.0669813 0)
(-0.0228955 -0.0687899 0)
(-0.0179297 -0.070248 0)
(-0.0128726 -0.0713481 0)
(-0.0077499 -0.0720846 0)
(-0.00258769 -0.0724538 0)
(0.00258769 -0.0724538 0)
(0.0077499 -0.0720846 0)
(0.0128726 -0.0713481 0)
(0.0179297 -0.070248 0)
(0.0228955 -0.0687899 0)
(0.0277445 -0.0669813 0)
(0.0324522 -0.0648313 0)
(0.0369946 -0.062351 0)
(0.0413484 -0.059553 0)
(0.0454915 -0.0564515 0)
(0.0494028 -0.0530624 0)
(0.0530624 -0.0494028 0)
(0.0564515 -0.0454915 0)
(0.059553 -0.0413484 0)
(0.062351 -0.0369946 0)
(0.0648313 -0.0324522 0)
(0.0669813 -0.0277445 0)
(0.0687899 -0.0228955 0)
(0.070248 -0.0179297 0)
(0.0713481 -0.0128726 0)
(0.0720846 -0.0077499 0)
(0.0724538 -0.00258769 0)
(0.0774585 0.00253573 0)
(0.0771268 0.00759633 0)
(0.0764649 0.0126244 0)
(0.0754755 0.0175984 0)
(0.0741629 0.0224971 0)
(0.0725327 0.0272994 0)
(0.0705919 0.0319848 0)
(0.0683489 0.0365332 0)
(0.0658132 0.0409253 0)
(0.0629956 0.045142 0)
(0.0599083 0.0491655 0)
(0.0565645 0.0529784 0)
(0.0529784 0.0565645 0)
(0.0491655 0.0599083 0)
(0.045142 0.0629956 0)
(0.0409253 0.0658132 0)
(0.0365332 0.0683489 0)
(0.0319848 0.0705919 0)
(0.0272994 0.0725327 0)
(0.0224971 0.0741629 0)
(0.0175984 0.0754755 0)
(0.0126244 0.0764649 0)
(0.00759633 0.0771268 0)
(0.00253573 0.0774585 0)
(-0.00253573 0.0774585 0)
(-0.00759633 0.0771268 0)
(-0.0126244 0.0764649 0)
(-0.0175984 0.0754755 0)
(-0.0224971 0.0741629 0)
(-0.0272994 0.0725327 0)
(-0.0319848 0.0705919 0)
(-0.0365332 0.0683489 0)
(-0.0409253 0.0658132 0)
(-0.045142 0.0629956 0)
(-0.0491655 0.0599083 0)
(-0.0529784 0.0565645 0)
(-0.0565645 0.0529784 0)
(-0.0599083 0.0491655 0)
(-0.0629956 0.045142 0)
(-0.0658132 0.0409253 0)
(-0.0683489 0.0365332 0)
(-0.0705919 0.0319848 0)
(-0.0725327 0.0272994 0)
(-0.0741629 0.0224971 0)
(-0.0754755 0.0175984 0)
(-0.0764649 0.0126244 0)
(-0.0771268 0.00759633 0)
(-0.0774585 0.00253573 0)
(-0.0774585 -0.00253573 0)
(-0.0771268 -0.00759633 0)
(-0.0764649 -0.0126244 0)
(-0.0754755 -0.0175984 0)
(-0.0741629 -0.0224971 0)
(-0.0725327 -0.0272994 0)
(-0.0705919 -0.0319848 0)
(-0.0683489 -0.0365332 0)
(-0.0658132 -0.0409253 0)
(-0.0629956 -0.045142 0)
(-0.0599083 -0.0491655 0)
(-0.0565645 -0.0529784 0)
(-0.0529784 -0.0565645 0)
(-0.0491655 -0.0599083 0)
(-0.045142 -0.0629956 0)
(-0.0409253 -0.0658132 0)
(-0.0365332 -0.0683489 0)
(-0.0319848 -0.0705919 0)
(-0.0272994 -0.0725327 0)
(-0.0224971 -0.0741629 0)
(-0.0175984 -0.0754755 0)
(-0.0126244 -0.0764649 0)
(-0.00759633 -0.0771268 0)
(-0.00253573 -0.0774585 0)
(0.00253573 -0.0774585 0)
(0.00759633 -0.0771268 0)
(0.0126244 -0.0764649 0)
(0.0175984 -0.0754755 0)
(0.0224971 -0.0741629 0)
(0.0272994 -0.0725327 0)
(0.0319848 -0.0705919 0)
(0.0365332 -0.0683489 0)
(0.0409253 -0.0658132 0)
(0.045142 -0.0629956 0)
(0.0491655 -0.0599083 0)
(0.0529784 -0.0565645 0)
(0.0565645 -0.0529784 0)
(0.0599083 -0.0491655 0)
(0.0629956 -0.045142 0)
(0.0658132 -0.0409253 0)
(0.0683489 -0.0365332 0)
(0.0705919 -0.0319848 0)
(0.0725327 -0.0272994 0)
(0.0741629 -0.0224971 0)
(0.0754755 -0.0175984 0)
(0.0764649 -0.0126244 0)
(0.0771268 -0.00759633 0)
(0.0774585 -0.00253573 0)
(0.0824558 0.00269932 0)
(0.0821027 0.00808641 0)
(0.0813981 0.0134389 0)
(0.0803449 0.0187338 0)
(0.0789476 0.0239485 0)
(0.0772122 0.0290606 0)
(0.0751463 0.0340483 0)
(0.0727585 0.0388902 0)
(0.0700592 0.0435656 0)
(0.0670599 0.0480544 0)
(0.0637734 0.0523374 0)
(0.0602138 0.0563964 0)
(0.0563964 0.0602138 0)
(0.0523374 0.0637734 0)
(0.0480544 0.0670599 0)
(0.0435656 0.0700592 0)
(0.0388902 0.0727585 0)
(0.0340483 0.0751463 0)
(0.0290606 0.0772122 0)
(0.0239485 0.0789476 0)
(0.0187338 0.0803449 0)
(0.0134389 0.0813981 0)
(0.00808641 0.0821027 0)
(0.00269932 0.0824558 0)
(-0.00269932 0.0824558 0)
(-0.00808641 0.0821027 0)
(-0.0134389 0.0813981 0)
(-0.0187338 0.0803449 0)
(-0.0239485 0.0789476 0)
(-0.0290606 0.0772122 0)
(-0.0340483 0.0751463 0)
(-0.0388902 0.0727585 0)
(-0.0435656 0.0700592 0)
(-0.0480544 0.0670599 0)
(-0.0523374 0.0637734 0)
(-0.0563964 0.0602138 0)
(-0.0602138 0.0563964 0)
(-0.0637734 0.0523374 0)
(-0.0670599 0.0480544 0)
(-0.0700592 0.0435656 0)
(-0.0727585 0.0388902 0)
(-0.0751463 0.0340483 0)
(-0.0772122 0.0290606 0)
(-0.0789476 0.0239485 0)
(-0.0803449 0.0187338 0)
(-0.0813981 0.0134389 0)
(-0.0821027 0.00808641 0)
(-0.0824558 0.00269932 0)
(-0.0824558 -0.00269932 0)
(-0.0821027 -0.00808641 0)
(-0.0813981 -0.0134389 0)
(-0.0803449 -0.0187338 0)
(-0.0789476 -0.0239485 0)
(-0.0772122 -0.0290606 0)
(-0.0751463 -0.0340483 0)
(-0.0727585 -0.0388902 0)
(-0.0700592 -0.0435656 0)
(-0.0670599 -0.0480544 0)
(-0.0637734 -0.0523374 0)
(-0.0602138 -0.0563964 0)
(-0.0563964 -0.0602138 0)
(-0.0523374 -0.0637734 0)
(-0.0480544 -0.0670599 0)
(-0.0435656 -0.0700592 0)
(-0.0388902 -0.0727585 0)
(-0.0340483 -0.0751463 0)
(-0.0290606 -0.0772122 0)
(-0.0239485 -0.0789476 0)
(-0.0187338 -0.0803449 0)
(-0.0134389 -0.0813981 0)
(-0.00808641 -0.0821027 0)
(-0.00269932 -0.0824558 0)
(0.00269932 -0.0824558 0)
(0.00808641 -0.0821027 0)
(0.0134389 -0.0813981 0)
(0.0187338 -0.0803449 0)
(0.0239485 -0.0789476 0)
(0.0290606 -0.0772122 0)
(0.0340483 -0.0751463 0)
(0.0388902 -0.0727585 0)
(0.0435656 -0.0700592 0)
(0.0480544 -0.0670599 0)
(0.0523374 -0.0637734 0)
(0.0563964 -0.0602138 0)
(0.0602138 -0.0563964 0)
(0.0637734 -0.0523374 0)
(0.0670599 -0.0480544 0)
(0.0700592 -0.0435656 0)
(0.0727585 -0.0388902 0)
(0.0751463 -0.0340483 0)
(0.0772122 -0.0290606 0)
(0.0789476 -0.0239485 0)
(0.0803449 -0.0187338 0)
(0.0813981 -0.0134389 0)
(0.0821027 -0.00808641 0)
(0.0824558 -0.00269932 0)
(0.0874601 0.00264276 0)
(0.0871409 0.00791865 0)
(0.0865038 0.0131656 0)
(0.0855511 0.0183646 0)
(0.0842862 0.0234965 0)
(0.0827137 0.0285427 0)
(0.0808395 0.0334848 0)
(0.0786702 0.0383047 0)
(0.0762139 0.0429848 0)
(0.0734795 0.047508 0)
(0.070477 0.0518579 0)
(0.0672173 0.0560186 0)
(0.0637123 0.0599749 0)
(0.0599749 0.0637123 0)
(0.0560186 0.0672173 0)
(0.0518579 0.070477 0)
(0.047508 0.0734795 0)
(0.0429848 0.0762139 0)
(0.0383047 0.0786702 0)
(0.0334848 0.0808395 0)
(0.0285427 0.0827137 0)
(0.0234965 0.0842862 0)
(0.0183646 0.0855511 0)
(0.0131656 0.0865038 0)
(0.00791865 0.0871409 0)
(0.00264276 0.0874601 0)
(-0.00264276 0.0874601 0)
(-0.00791865 0.0871409 0)
(-0.0131656 0.0865038 0)
(-0.0183646 0.0855511 0)
(-0.0234965 0.0842862 0)
(-0.0285427 0.0827137 0)
(-0.0334848 0.0808395 0)
(-0.0383047 0.0786702 0)
(-0.0429848 0.0762139 0)
(-0.047508 0.0734795 0)
(-0.0518579 0.070477 0)
(-0.0560186 0.0672173 0)
(-0.0599749 0.0637123 0)
(-0.0637123 0.0599749 0)
(-0.0672173 0.0560186 0)
(-0.070477 0.0518579 0)
(-0.0734795 0.047508 0)
(-0.0762139 0.0429848 0)
(-0.0786702 0.0383047 0)
(-0.0808395 0.0334848 0)
(-0.0827137 0.0285427 0)
(-0.0842862 0.0234965 0)
(-0.0855511 0.0183646 0)
(-0.0865038 0.0131656 0)
(-0.0871409 0.00791865 0)
(-0.0874601 0.00264276 0)
(-0.0874601 -0.00264276 0)
(-0.0871409 -0.00791865 0)
(-0.0865038 -0.0131656 0)
(-0.0855511 -0.0183646 0)
(-0.0842862 -0.0234965 0)
(-0.0827137 -0.0285427 0)
(-0.0808395 -0.0334848 0)
(-0.0786702 -0.0383047 0)
(-0.0762139 -0.0429848 0)
(-0.0734795 -0.047508 0)
(-0.070477 -0.0518579 0)
(-0.0672173 -0.0560186 0)
(-0.0637123 -0.0599749 0)
(-0.0599749 -0.0637123 0)
(-0.0560186 -0.0672173 0)
(-0.0518579 -0.070477 0)
(-0.047508 -0.0734795 0)
(-0.0429848 -0.0762139 0)
(-0.0383047 -0.0786702 0)
(-0.0334848 -0.0808395 0)
(-0.0285427 -0.0827137 0)
(-0.0234965 -0.0842862 0)
(-0.0183646 -0.0855511 0)
(-0.0131656 -0.0865038 0)
(-0.00791865 -0.0871409 0)
(-0.00264276 -0.0874601 0)
(0.00264276 -0.0874601 0)
(0.00791865 -0.0871409 0)
(0.0131656 -0.0865038 0)
(0.0183646 -0.0855511 0)
(0.0234965 -0.0842862 0)
(0.0285427 -0.0827137 0)
(0.0334848 -0.0808395 0)
(0.0383047 -0.0786702 0)
(0.0429848 -0.0762139 0)
(0.047508 -0.0734795 0)
(0.0518579 -0.070477 0)
(0.0560186 -0.0672173 0)
(0.0599749 -0.0637123 0)
(0.0637123 -0.0599749 0)
(0.0672173 -0.0560186 0)
(0.070477 -0.0518579 0)
(0.0734795 -0.047508 0)
(0.0762139 -0.0429848 0)
(0.0786702 -0.0383047 0)
(0.0808395 -0.0334848 0)
(0.0827137 -0.0285427 0)
(0.0842862 -0.0234965 0)
(0.0855511 -0.0183646 0)
(0.0865038 -0.0131656 0)
(0.0871409 -0.00791865 0)
(0.0874601 -0.00264276 0)
(0.0924636 0.00259428 0)
(0.0921727 0.00777467 0)
(0.0915918 0.0129306 0)
(0.0907226 0.0180459 0)
(0.0895681 0.0231043 0)
(0.0881317 0.0280901 0)
(0.086418 0.0329875 0)
(0.0844325 0.0377811 0)
(0.0821812 0.0424558 0)
(0.0796714 0.046997 0)
(0.0769109 0.0513902 0)
(0.0739085 0.0556218 0)
(0.0706735 0.0596784 0)
(0.0672161 0.0635472 0)
(0.0635472 0.0672161 0)
(0.0596784 0.0706735 0)
(0.0556218 0.0739085 0)
(0.0513902 0.0769109 0)
(0.046997 0.0796714 0)
(0.0424558 0.0821812 0)
(0.0377811 0.0844325 0)
(0.0329875 0.086418 0)
(0.0280901 0.0881317 0)
(0.0231043 0.0895681 0)
(0.0180459 0.0907226 0)
(0.0129306 0.0915918 0)
(0.00777467 0.0921727 0)
(0.00259428 0.0924636 0)
(-0.00259428 0.0924636 0)
(-0.00777467 0.0921727 0)
(-0.0129306 0.0915918 0)
(-0.0180459 0.0907226 0)
(-0.0231043 0.0895681 0)
(-0.0280901 0.0881317 0)
(-0.0329875 0.086418 0)
(-0.0377811 0.0844325 0)
(-0.0424558 0.0821812 0)
(-0.046997 0.0796714 0)
(-0.0513902 0.0769109 0)
(-0.0556218 0.0739085 0)
(-0.0596784 0.0706735 0)
(-0.0635472 0.0672161 0)
(-0.0672161 0.0635472 0)
(-0.0706735 0.0596784 0)
(-0.0739085 0.0556218 0)
(-0.0769109 0.0513902 0)
(-0.0796714 0.046997 0)
(-0.0821812 0.0424558 0)
(-0.0844325 0.0377811 0)
(-0.086418 0.0329875 0)
(-0.0881317 0.0280901 0)
(-0.0895681 0.0231043 0)
(-0.0907226 0.0180459 0)
(-0.0915918 0.0129306 0)
(-0.0921727 0.00777467 0)
(-0.0924636 0.00259428 0)
(-0.0924636 -0.00259428 0)
(-0.0921727 -0.00777467 0)
(-0.0915918 -0.0129306 0)
(-0.0907226 -0.0180459 0)
(-0.0895681 -0.0231043 0)
(-0.0881317 -0.0280901 0)
(-0.086418 -0.0329875 0)
(-0.0844325 -0.0377811 0)
(-0.0821812 -0.0424558 0)
(-0.0796714 -0.046997 0)
(-0.0769109 -0.0513902 0)
(-0.0739085 -0.0556218 0)
(-0.0706735 -0.0596784 0)
(-0.0672161 -0.0635472 0)
(-0.0635472 -0.0672161 0)
(-0.0596784 -0.0706735 0)
(-0.0556218 -0.0739085 0)
(-0.0513902 -0.0769109 0)
(-0.046997 -0.0796714 0)
(-0.0424558 -0.0821812 0)
(-0.0377811 -0.0844325 0)
(-0.0329875 -0.086418 0)
(-0.0280901 -0.0881317 0)
(-0.0231043 -0.0895681 0)
(-0.0180459 -0.0907226 0)
(-0.0129306 -0.0915918 0)
(-0.00777467 -0.0921727 0)
(-0.00259428 -0.0924636 0)
(0.00259428 -0.0924636 0)
(0.00777467 -0.0921727 0)
(0.0129306 -0.0915918 0)
(0.0180459 -0.0907226 0)
(0.0231043 -0.0895681 0)
(0.0280901 -0.0881317 0)
(0.0329875 -0.086418 0)
(0.0377811 -0.0844325 0)
(0.0424558 -0.0821812 0)
(0.046997 -0.0796714 0)
(0.0513902 -0.0769109 0)
(0.0556218 -0.0739085 0)
(0.0596784 -0.0706735 0)
(0.0635472 -0.0672161 0)
(0.0672161 -0.0635472 0)
(0.0706735 -0.0596784 0)
(0.0739085 -0.0556218 0)
(0.0769109 -0.0513902 0)
(0.0796714 -0.046997 0)
(0.0821812 -0.0424558 0)
(0.0844325 -0.0377811 0)
(0.086418 -0.0329875 0)
(0.0881317 -0.0280901 0)
(0.0895681 -0.0231043 0)
(0.0907226 -0.0180459 0)
(0.0915918 -0.0129306 0)
(0.0921727 -0.00777467 0)
(0.0924636 -0.00259428 0)
(0.0974666 0.00255225 0)
(0.0971994 0.00764976 0)
(0.0966659 0.0127263 0)
(0.0958674 0.017768 0)
(0.0948061 0.0227609 0)
(0.0934849 0.0276915 0)
(0.0919075 0.0325462 0)
(0.0900783 0.0373116 0)
(0.0880021 0.0419748 0)
(0.0856847 0.046523 0)
(0.0831324 0.0509436 0)
(0.0803523 0.0552246 0)
(0.077352 0.0593542 0)
(0.0741396 0.0633212 0)
(0.070724 0.0671146 0)
(0.0671146 0.070724 0)
(0.0633212 0.0741396 0)
(0.0593542 0.077352 0)
(0.0552246 0.0803523 0)
(0.0509436 0.0831324 0)
(0.046523 0.0856847 0)
(0.0419748 0.0880021 0)
(0.0373116 0.0900783 0)
(0.0325462 0.0919075 0)
(0.0276915 0.0934849 0)
(0.0227609 0.0948061 0)
(0.017768 0.0958674 0)
(0.0127263 0.0966659 0)
(0.00764976 0.0971994 0)
(0.00255225 0.0974666 0)
(-0.00255225 0.0974666 0)
(-0.00764976 0.0971994 0)
(-0.0127263 0.0966659 0)
(-0.017768 0.0958674 0)
(-0.0227609 0.0948061 0)
(-0.0276915 0.0934849 0)
(-0.0325462 0.0919075 0)
(-0.0373116 0.0900783 0)
(-0.0419748 0.0880021 0)
(-0.046523 0.0856847 0)
(-0.0509436 0.0831324 0)
(-0.0552246 0.0803523 0)
(-0.0593542 0.077352 0)
(-0.0633212 0.0741396 0)
(-0.0671146 0.070724 0)
(-0.070724 0.0671146 0)
(-0.0741396 0.0633212 0)
(-0.077352 0.0593542 0)
(-0.0803523 0.0552246 0)
(-0.0831324 0.0509436 0)
(-0.0856847 0.046523 0)
(-0.0880021 0.0419748 0)
(-0.0900783 0.0373116 0)
(-0.0919075 0.0325462 0)
(-0.0934849 0.0276915 0)
(-0.0948061 0.0227609 0)
(-0.0958674 0.017768 0)
(-0.0966659 0.0127263 0)
(-0.0971994 0.00764976 0)
(-0.0974666 0.00255225 0)
(-0.0974666 -0.00255225 0)
(-0.0971994 -0.00764976 0)
(-0.0966659 -0.0127263 0)
(-0.0958674 -0.017768 0)
(-0.0948061 -0.0227609 0)
(-0.0934849 -0.0276915 0)
(-0.0919075 -0.0325462 0)
(-0.0900783 -0.0373116 0)
(-0.0880021 -0.0419748 0)
(-0.0856847 -0.046523 0)
(-0.0831324 -0.0509436 0)
(-0.0803523 -0.0552246 0)
(-0.077352 -0.0593542 0)
(-0.0741396 -0.0633212 0)
(-0.070724 -0.0671146 0)
(-0.0671146 -0.070724 0)
(-0.0633212 -0.0741396 0)
(-0.0593542 -0.077352 0)
(-0.0552246 -0.0803523 0)
(-0.0509436 -0.0831324 0)
(-0.046523 -0.0856847 0)
(-0.0419748 -0.0880021 0)
(-0.0373116 -0.0900783 0)
(-0.0325462 -0.0919075 0)
(-0.0276915 -0.0934849 0)
(-0.0227609 -0.0948061 0)
(-0.017768 -0.0958674 0)
(-0.0127263 -0.0966659 0)
(-0.00764976 -0.0971994 0)
(-0.00255225 -0.0974666 0)
(0.00255225 -0.0974666 0)
(0.00764976 -0.0971994 0)
(0.0127263 -0.0966659 0)
(0.017768 -0.0958674 0)
(0.0227609 -0.0948061 0)
(0.0276915 -0.0934849 0)
(0.0325462 -0.0919075 0)
(0.0373116 -0.0900783 0)
(0.0419748 -0.0880021 0)
(0.046523 -0.0856847 0)
(0.0509436 -0.0831324 0)
(0.0552246 -0.0803523 0)
(0.0593542 -0.077352 0)
(0.0633212 -0.0741396 0)
(0.0671146 -0.070724 0)
(0.070724 -0.0671146 0)
(0.0741396 -0.0633212 0)
(0.077352 -0.0593542 0)
(0.0803523 -0.0552246 0)
(0.0831324 -0.0509436 0)
(0.0856847 -0.046523 0)
(0.0880021 -0.0419748 0)
(0.0900783 -0.0373116 0)
(0.0919075 -0.0325462 0)
(0.0934849 -0.0276915 0)
(0.0948061 -0.0227609 0)
(0.0958674 -0.017768 0)
(0.0966659 -0.0127263 0)
(0.0971994 -0.00764976 0)
(0.0974666 -0.00255225 0)
)


// ************************************************************************* //
