/*--------------------------------*- C++ -*----------------------------------*\
  =========                 |
  \\      /  F ield         | OpenFOAM: The Open Source CFD Toolbox
   \\    /   O peration     | Website:  https://openfoam.org
    \\  /    A nd           | Version:  dev
     \\/     M anipulation  |
\*---------------------------------------------------------------------------*/
FoamFile
{
    format      ascii;
    class       volVectorField;
    location    "0";
    object      U;
}
// * * * * * * * * * * * * * * * * * * * * * * * * * * * * * * * * * * * * * //

volumeFlowRate 1.0;

dimensions      [velocity];

internalField   uniform (0 0 0);

boundaryField
{

    inlet
    {
        type            variableHeightFlowRateInletVelocity;
        flowRate        $volumeFlowRate;
        alpha           alpha.water;
        value           uniform (0 0 0);
    }

    outlet
    {
        type            inletOutlet;
        inletValue      uniform (0 0 0);
    }

    atmosphere
    {
        type            pressureInletOutletVelocity;
    }

    wall
    {
        type            noSlip;
    }

}

// ************************************************************************* //
