/*--------------------------------*- C++ -*----------------------------------*\
  =========                 |
  \\      /  F ield         | OpenFOAM: The Open Source CFD Toolbox
   \\    /   O peration     | Website:  https://openfoam.org
    \\  /    A nd           | Version:  dev
     \\/     M anipulation  |
\*---------------------------------------------------------------------------*/
FoamFile
{
    format      ascii;
    class       dictionary;
    location    "constant";
    object      heatTransfer;
}
// * * * * * * * * * * * * * * * * * * * * * * * * * * * * * * * * * * * * * //

blending        default;

particles_dispersedIn_vapour
{
    type            timeScaleFiltered;

    minRelaxTime    1e-4;

    heatTransferModel
    {
        type            constantNu;
        Nu              1;
    }
}

// ************************************************************************* //
