/*--------------------------------*- C++ -*----------------------------------*\
  =========                 |
  \\      /  F ield         | OpenFOAM: The Open Source CFD Toolbox
   \\    /   O peration     | Website:  https://openfoam.org
    \\  /    A nd           | Version:  dev
     \\/     M anipulation  |
\*---------------------------------------------------------------------------*/
FoamFile
{
    format      ascii;
    class       dictionary;
    location    "constant";
    object      momentumTransfer;
}
// * * * * * * * * * * * * * * * * * * * * * * * * * * * * * * * * * * * * * //

drag
{
    particles_dispersedIn_vapour
    {
        type            timeScaleFiltered;

        minRelaxTime    1e-4;

        dragModel
        {
            type            aerosolDrag;
            sigma           340e-12;
        }
    }
}

virtualMass
{}

lift
{}

wallLubrication
{}

turbulentDispersion
{}

// ************************************************************************* //
