/*--------------------------------*- C++ -*----------------------------------*\
  =========                 |
  \\      /  F ield         | OpenFOAM: The Open Source CFD Toolbox
   \\    /   O peration     | Website:  https://openfoam.org
    \\  /    A nd           | Version:  dev
     \\/     M anipulation  |
\*---------------------------------------------------------------------------*/
FoamFile
{
    format      ascii;
    class       volScalarField;
    location    "0/gas";
    object      CH4;
}
// * * * * * * * * * * * * * * * * * * * * * * * * * * * * * * * * * * * * * //

dimensions      [];

internalField
{
    type        zonal;

    defaultValue    0;

    zones
    {
        fuel
        {
            type            box;
            box             (0 0 -0.01) (0.01 0.1 0.01);
            value           1;
        }
    }
}

boundaryField
{
    #includeEtc "caseDicts/setConstraintTypes"

    inletFuel
    {
        type            fixedValue;
        value           uniform 1;
    }

    inletAir
    {
        type            fixedValue;
        value           uniform 0;
    }

    outlet
    {
        type            inletOutlet;
        inletValue      uniform 0;

    }

    gas_to_solid
    {
        type            zeroGradient;
    }
}


// ************************************************************************* //
