/*--------------------------------*- C++ -*----------------------------------*\
  =========                 |
  \\      /  F ield         | OpenFOAM: The Open Source CFD Toolbox
   \\    /   O peration     | Website:  https://openfoam.org
    \\  /    A nd           | Version:  dev
     \\/     M anipulation  |
\*---------------------------------------------------------------------------*/
FoamFile
{
    format      ascii;
    class       dictionary;
    location    "constant";
    object      fvModels;
}
// * * * * * * * * * * * * * * * * * * * * * * * * * * * * * * * * * * * * * //

phaseChange
{
    type            massDiffusionLimitedPhaseChange;
    libs            ("libmultiphaseEulerFvModels.so");

    phases          (gas liquid);

    energySemiImplicit yes;

    interfaceComposition
    {
        gas_liquid_inThe_gas
        {
            type            saturated;
            species         (H2O);
            Le              1.0;
            pSat            ArdenBuck;
        }
    }

    diffusiveMassTransfer
    {
        blending        default;

        liquid_dispersedIn_gas_inThe_gas
        {
            type            Frossling;
            Le              1.0;
        }
    }
}

// ************************************************************************* //
