/*--------------------------------*- C++ -*----------------------------------*\
| =========                 |                                                 |
| \\      /  F ield         | OpenFOAM: The Open Source CFD Toolbox           |
|  \\    /   O peration     | Version:  dev                                   |
|   \\  /    A nd           | Website:  https://openfoam.org                  |
|    \\/     M anipulation  |                                                 |
\*---------------------------------------------------------------------------*/
FoamFile
{
    version     2.0;
    format      ascii;
    class       dictionary;
    object      createBafflesDict;
}
// * * * * * * * * * * * * * * * * * * * * * * * * * * * * * * * * * * * * * //

internalFacesOnly true;

baffles
{
    baffleFaces
    {
        type        faceZone;
        zoneName    rotatingZone;

        patches
        {
            master
            {
                name            AMI1;
                type            cyclicAMI;
                matchTolerance  0.0001;
                neighbourPatch  AMI2;
                transform       noOrdering;
            }
            slave
            {
                $master;
                name            AMI2;
                neighbourPatch  AMI1;
            }
        }
    }
}

// ************************************************************************* //
