/*--------------------------------*- C++ -*----------------------------------*\
  =========                 |
  \\      /  F ield         | OpenFOAM: The Open Source CFD Toolbox
   \\    /   O peration     | Website:  https://openfoam.org
    \\  /    A nd           | Version:  dev
     \\/     M anipulation  |
\*---------------------------------------------------------------------------*/
FoamFile
{
    format      ascii;
    class       dictionary;
    object      controlDict;
}
// * * * * * * * * * * * * * * * * * * * * * * * * * * * * * * * * * * * * * //

application             interFoam;

startFrom               latestTime;

startTime               0;

stopAt                  endTime;

endTime                 0.05;

deltaT                  1e-8;

writeControl            adjustableRunTime;

writeInterval           0.001;

purgeWrite              0;

writeFormat             binary;

writePrecision          6;

writeCompression        off;

timeFormat              general;

runTimeModifiable       yes;

adjustTimeStep          on;

maxCo                   5;
maxAlphaCo              2;

// ************************************************************************* //
