/*--------------------------------*- C++ -*----------------------------------*\
  =========                 |
  \\      /  F ield         | OpenFOAM: The Open Source CFD Toolbox
   \\    /   O peration     | Website:  https://openfoam.org
    \\  /    A nd           | Version:  dev
     \\/     M anipulation  |
\*---------------------------------------------------------------------------*/
FoamFile
{
    format      ascii;
    class       volScalarField;
    location    "templates/0/fluid";
    object      k;
}
// * * * * * * * * * * * * * * * * * * * * * * * * * * * * * * * * * * * * * //

kInlet          0.02;
intensityInlet  0.01;

dimensions      [turbulentKineticEnergy];

internalField   uniform $kInlet;

boundaryField
{
    inlet
    {
        type            turbulentKineticEnergy;
        intensity       $intensityInlet;
        value           uniform $kInlet;
    }

    outlet
    {
        type            inletOutlet;
        inletValue      uniform $kInlet;
    }

    wall
    {
        type            kqRWallFunction;
        value           uniform $kInlet;
    }

    #includeEtc "caseDicts/setConstraintTypes"
}


// ************************************************************************* //
