/*--------------------------------*- C++ -*----------------------------------*\
| =========                 |                                                 |
| \\      /  F ield         | OpenFOAM: The Open Source CFD Toolbox           |
|  \\    /   O peration     | Version:  dev                                   |
|   \\  /    A nd           | Web:      www.OpenFOAM.org                      |
|    \\/     M anipulation  |                                                 |
\*---------------------------------------------------------------------------*/
FoamFile
{
    version     2.0;
    format      ascii;
    class       dictionary;
    location    "system";
    object      controlDict;
}
// * * * * * * * * * * * * * * * * * * * * * * * * * * * * * * * * * * * * * //

application     LTSInterFoam;

startFrom       latestTime;

startTime       0;

stopAt          endTime;

endTime         5000;

deltaT          1;

writeControl    timeStep;

writeInterval   200;

purgeWrite      0;

writeFormat     ascii;

writePrecision  6;

writeCompression compressed;

timeFormat      general;

timePrecision   6;

runTimeModifiable yes;

adjustTimeStep  yes;
maxCo           0.5;
maxAlphaCo      0.5;
maxDeltaT       1;

functions
{
    inletFlux
    {
        type            faceSource;
        functionObjectLibs ("libfieldFunctionObjects.so");
        outputControl   timeStep;
        log             true;
        // Output field values as well
        valueOutput     false;
        source          patch;
        sourceName      inlet;
        operation       sum;

        fields
        (
            rhoPhi
        );
    }

    outletFlux
    {
        $inletFlux;
        sourceName      outlet;
    }

    atmosphereFlux
    {
        $inletFlux;
        sourceName      atmosphere;
    }
}

// ************************************************************************* //
