/*--------------------------------*- C++ -*----------------------------------*\
  =========                 |
  \\      /  F ield         | OpenFOAM: The Open Source CFD Toolbox
   \\    /   O peration     | Website:  https://openfoam.org
    \\  /    A nd           | Version:  dev
     \\/     M anipulation  |
\*---------------------------------------------------------------------------*/
FoamFile
{
    format      ascii;
    class       dictionary;
    location    "constant";
    object      phaseProperties;
}
// * * * * * * * * * * * * * * * * * * * * * * * * * * * * * * * * * * * * * //

phases          (particles air);

particles
{
    type            purePhaseModel;

    diameterModel
    {
        type            constant;
        d               3e-4;
    }

    alphaMax        0.62;
    residualAlpha   1e-6;
}

air
{
    type            purePhaseModel;

    diameterModel   none;

    residualAlpha   0;
}

blending
{
    default
    {
        type            continuous;
        phase           air;
    }
}

surfaceTension
{
    particles_air
    {
        type            constant;
        sigma           0;
    }
}

// ************************************************************************* //
