/*--------------------------------*- C++ -*----------------------------------*\
  =========                 |
  \\      /  F ield         | OpenFOAM: The Open Source CFD Toolbox
   \\    /   O peration     | Website:  https://openfoam.org
    \\  /    A nd           | Version:  dev
     \\/     M anipulation  |
\*---------------------------------------------------------------------------*/
FoamFile
{
    version     2.0;
    format      ascii;
    class       dictionary;
    location    "system";
    object      refineMeshDict;
}
// * * * * * * * * * * * * * * * * * * * * * * * * * * * * * * * * * * * * * //

set             c0;

coordinateSystem global;

globalCoeffs
{
    tan1            (1 0 0);
    tan2            (0 1 0);
}

directions      ( tan1 tan2 );

useHexTopology  yes;

geometricCut    no;

writeMesh       no;


// ************************************************************************* //
