/*--------------------------------*- C++ -*----------------------------------*\
  =========                 |
  \\      /  F ield         | OpenFOAM: The Open Source CFD Toolbox
   \\    /   O peration     | Website:  https://openfoam.org
    \\  /    A nd           | Version:  dev
     \\/     M anipulation  |
\*---------------------------------------------------------------------------*/
FoamFile
{
    format      ascii;
    class       dictionary;
    object      createZonesDict;
}
// * * * * * * * * * * * * * * * * * * * * * * * * * * * * * * * * * * * * * //

beforeBend_1d
{
    type        box;
    zoneType    cell;
    box         (-0.03 0.35 -0.03) (0.03 0.37 0.03);
}

afterBend_1d
{
    type        box;
    zoneType    cell;
    box         (-0.03 0.43 0.09) (0.03 0.48 0.11);
}

afterBend_5d
{
    type        box;
    zoneType    cell;
    box         (-0.03 0.43 0.25) (0.03 0.48 0.27);
}

afterBend_9d
{
    type        box;
    zoneType    cell;
    box         (-0.03 0.43 0.41) (0.03 0.48 0.43);
}

// ************************************************************************* //
