/*--------------------------------*- C++ -*----------------------------------*\
  =========                 |
  \\      /  F ield         | OpenFOAM: The Open Source CFD Toolbox
   \\    /   O peration     | Website:  https://openfoam.org
    \\  /    A nd           | Version:  dev
     \\/     M anipulation  |
\*---------------------------------------------------------------------------*/
FoamFile
{
    format      ascii;
    class       dictionary;
    object      ;
}
// * * * * * * * * * * * * * * * * * * * * * * * * * * * * * * * * * * * * * //

graph
{
    type            sets;
    libs ("libsampling.so");
    writeControl   writeTime;

    interpolationScheme cellPointFace;

    setFormat       raw;

    sets
    (
        centreline
        {
            type    lineUniform;
            axis    x;
            start   ( 0  1e-6 0);
            end     (25  1e-6 0);
            nPoints 250;
        }
    );

    fields      ( U );
}

// ************************************************************************* //
