/*--------------------------------*- C++ -*----------------------------------*\
  =========                 |
  \\      /  F ield         | OpenFOAM: The Open Source CFD Toolbox
   \\    /   O peration     | Website:  https://openfoam.org
    \\  /    A nd           | Version:  dev
     \\/     M anipulation  |
\*---------------------------------------------------------------------------*/
FoamFile
{
    format      ascii;
    class       dictionary;
    location    "constant";
    object      heatTransfer;
}
// * * * * * * * * * * * * * * * * * * * * * * * * * * * * * * * * * * * * * //

blending
{
    type            linear;
    minFullyContinuousAlpha.air 1;
    minPartlyContinuousAlpha.air 0;
    minFullyContinuousAlpha.water 1;
    minPartlyContinuousAlpha.water 0;
    minFullyContinuousAlpha.solid none;
    minPartlyContinuousAlpha.solid none;
}

air_dispersedIn_water_inThe_air
{
    type            spherical;
    residualAlpha   1e-4;
}

air_dispersedIn_water_inThe_water
{
    type            RanzMarshall;
    residualAlpha   1e-4;
}

water_dispersedIn_air_inThe_air
{
    type            RanzMarshall;
    residualAlpha   1e-4;
}

water_dispersedIn_air_inThe_water
{
    type            spherical;
    residualAlpha   1e-4;
}

solid_dispersedIn_air
{
    type            RanzMarshall;
    residualAlpha   1e-4;
}

solid_dispersedIn_water
{
    type            RanzMarshall;
    residualAlpha   1e-4;
}

// ************************************************************************* //
