/*--------------------------------*- C++ -*----------------------------------*\
  =========                 |
  \\      /  F ield         | OpenFOAM: The Open Source CFD Toolbox
   \\    /   O peration     | Website:  https://openfoam.org
    \\  /    A nd           | Version:  dev
     \\/     M anipulation  |
\*---------------------------------------------------------------------------*/
FoamFile
{
    format      ascii;
    class       dictionary;
    location    "constant";
    object      phaseProperties;
}
// * * * * * * * * * * * * * * * * * * * * * * * * * * * * * * * * * * * * * //

phases          (air water solid);

air
{
    type            purePhaseModel;

    diameterModel
    {
        type            isothermal;
        d0              3e-3;
        p0              1e5;
    }

    residualAlpha   1e-6;
}

water
{
    type            purePhaseModel;

    diameterModel
    {
        type            constant;
        d               1e-4;
    }

    residualAlpha   1e-6;
}

solid
{
    type            pureStationaryPhaseModel;

    diameterModel
    {
        type            constant;
        d               1e-2;
    }

    residualAlpha   1e-6;
}

blending
{
    default
    {
        type            linear;
        minFullyContinuousAlpha.air 0.8;
        minPartlyContinuousAlpha.air 0.2;
        minFullyContinuousAlpha.water 0.8;
        minPartlyContinuousAlpha.water 0.2;
        minFullyContinuousAlpha.solid none;
        minPartlyContinuousAlpha.solid none;
    }

    segregated
    {
        type            linear;
        minFullyContinuousAlpha.air 0.8;
        minPartlyContinuousAlpha.air 0.5;
        minFullyContinuousAlpha.water 0.8;
        minPartlyContinuousAlpha.water 0.5;
        minFullyContinuousAlpha.solid none;
        minPartlyContinuousAlpha.solid none;
    }
}

surfaceTension
{
    air_water
    {
        type            constant;
        sigma           0.07;
    }
}

// ************************************************************************* //
