/*--------------------------------*- C++ -*----------------------------------*\
  =========                 |
  \\      /  F ield         | OpenFOAM: The Open Source CFD Toolbox
   \\    /   O peration     | Website:  https://openfoam.org
    \\  /    A nd           | Version:  dev
     \\/     M anipulation  |
\*---------------------------------------------------------------------------*/
FoamFile
{
    format      ascii;
    class       dictionary;
    object      blockMeshDict;
}
// * * * * * * * * * * * * * * * * * * * * * * * * * * * * * * * * * * * * * //

convertToMeters 1;

vertices
(

    (0 0 0)
    (30 0 0)
    (30 1 0)
    (0 1 0)
    (0 0 1)
    (30 0 1)
    (30 1 1)
    (0 1 1)

);

blocks
(
    hex (0 1 2 3 4 5 6 7) (6 2 1) simpleGrading (1.0 1.0 1.0)
);

edges
(
);

boundary
(
    topSurface
    {
        type patch;
        faces
        (
            (3 7 6 2)
        );
    }

    bottomSurface
    {
        type patch;
        faces
        (
            (4 0 1 5)
        );
    }

    fixedEnd
    {
        type patch;
        faces
        (
            (0 4 7 3)
        );
    }

    tractionEnd
    {
        type patch;
        faces
        (
            (1 2 6 5)
        );
    }
);

mergePatchPairs
(
);

// ************************************************************************* //
