/*--------------------------------*- C++ -*----------------------------------*\
| =========                 |                                                 |
| \\      /  F ield         | OpenFOAM: The Open Source CFD Toolbox           |
|  \\    /   O peration     | Version:  dev                                   |
|   \\  /    A nd           | Website:  https://openfoam.org                  |
|    \\/     M anipulation  |                                                 |
\*---------------------------------------------------------------------------*/
FoamFile
{
    version     2.0;
    format      ascii;
    class       dictionary;
    object      fvSolution;
}
// * * * * * * * * * * * * * * * * * * * * * * * * * * * * * * * * * * * * * //

solvers
{
    "pcorr.*"
    {
        solver          GAMG;
        tolerance       1e-2;
        relTol          0;
        smoother        GaussSeidel;
        cacheAgglomeration no;
        maxIter         50;
    }

    p
    {
        $pcorr;
        tolerance       1e-5;
        relTol          0.01;
    }

    pFinal
    {
        $p;
        tolerance       1e-6;
        relTol          0;
    }

    "(U|k|epsilon)"
    {
        solver          smoothSolver;
        smoother        symGaussSeidel;
        tolerance       1e-6;
        relTol          0.1;
    }

    "(U|k|epsilon)Final"
    {
        $U;
        tolerance       1e-6;
        relTol          0;
    }
}

PIMPLE
{
    correctPhi          no;
    nOuterCorrectors    1;
    nCorrectors         2;
    nNonOrthogonalCorrectors 0;
}

relaxationFactors
{
//    "(U|k|epsilon).*"   1;
}

cache
{
    grad(U);
}

// ************************************************************************* //
