/*--------------------------------*- C++ -*----------------------------------*\
  =========                 |
  \\      /  F ield         | OpenFOAM: The Open Source CFD Toolbox
   \\    /   O peration     | Website:  https://openfoam.org
    \\  /    A nd           | Version:  dev
     \\/     M anipulation  |
\*---------------------------------------------------------------------------*/
FoamFile
{
    format      ascii;
    class       volVectorField;
    location    "0";
    object      U;
}
// * * * * * * * * * * * * * * * * * * * * * * * * * * * * * * * * * * * * * //

dimensions      [velocity];

internalField   uniform (0 0 0);

boundaryField
{
    periodicX_half0
    {
        type            cyclic;
    }
    periodicY_half0
    {
        type            cyclic;
    }
    periodicZ_half0
    {
        type            cyclic;
    }
    periodicY_half1
    {
        type            cyclic;
    }
    periodicZ_half1
    {
        type            cyclic;
    }
    periodicX_half1
    {
        type            cyclic;
    }
}


// ************************************************************************* //
