/*--------------------------------*- C++ -*----------------------------------*\
| =========                 |                                                 |
| \\      /  F ield         | OpenFOAM: The Open Source CFD Toolbox           |
|  \\    /   O peration     | Version:  dev                                   |
|   \\  /    A nd           | Website:  https://openfoam.org                  |
|    \\/     M anipulation  |                                                 |
\*---------------------------------------------------------------------------*/
FoamFile
{
    version     2.0;
    format      ascii;
    class       volVectorField;
    location    "0";
    object      U;
}
// * * * * * * * * * * * * * * * * * * * * * * * * * * * * * * * * * * * * * //

dimensions      [0 1 -1 0 0 0 0];

internalField   uniform (0 0 0);

boundaryField
{
    inlet
    {
        type            flowRateInletVelocity;
        massFlowRate    0.0001;
        value           uniform (0 0 0);
    }

    outlet
    {
        type            pressureInletOutletVelocity;
        inletValue      uniform (0 0 0);
        value           uniform (0 0 0);
    }

    symmetry
    {
        type            symmetry;
    }

    wall
    {
        type            fixedValue;
        value           uniform (0 0 0);
    }

    plenum
    {
        type            pressureInletVelocity;
        value           uniform (0 0 0);
    }
}

// ************************************************************************* //
