/*--------------------------------*- C++ -*----------------------------------*\
  =========                 |
  \\      /  F ield         | OpenFOAM: The Open Source CFD Toolbox
   \\    /   O peration     | Website:  https://openfoam.org
    \\  /    A nd           | Version:  dev
     \\/     M anipulation  |
\*---------------------------------------------------------------------------*/
FoamFile
{
    format      ascii;
    class       dictionary;
    object      controlDict;
}
// * * * * * * * * * * * * * * * * * * * * * * * * * * * * * * * * * * * * * //

application     foamRun;

solver          incompressibleFluid;

startFrom       startTime;

startTime       0;

stopAt          endTime;

endTime         0.7;

deltaT          1e-4;

writeControl    timeStep;

writeInterval   1000;

purgeWrite      0;

writeFormat     binary;

writePrecision  6;

writeCompression off;

timeFormat      general;

timePrecision   6;

runTimeModifiable true;

cacheTemporaryObjects
(
    SpalartAllmarasDDES:LESRegion
);

functions
{
    writeCachedObjects
    {
        type        writeObjects;

        libs        ("libutilityFunctionObjects.so");

        writeControl writeTime;
        writeOption anyWrite;

        objects
        (
            SpalartAllmarasDDES:LESRegion
        );
    }

    #include "cutPlane"
    #include "streamlines"
    #include "forceCoeffs"
}

// ************************************************************************* //
