/*--------------------------------*- C++ -*----------------------------------*\
| =========                 |                                                 |
| \\      /  F ield         | OpenFOAM: The Open Source CFD Toolbox           |
|  \\    /   O peration     | Version:  dev                                   |
|   \\  /    A nd           | Website:  https://openfoam.org                  |
|    \\/     M anipulation  |                                                 |
\*---------------------------------------------------------------------------*/
FoamFile
{
    version     2.0;
    format      ascii;
    class       dictionary;
    location    "system";
    object      fvSchemes;
}
// * * * * * * * * * * * * * * * * * * * * * * * * * * * * * * * * * * * * * //

ddtSchemes
{
    default         Euler;
}

gradSchemes
{
    default         Gauss linear;
}

divSchemes
{
    default         none;

    div(phi,U)      Gauss LUST grad(U);
    div(phi,K)      Gauss linear;
    div(phi,k)      Gauss limitedLinear 1;
    div(phi,Yi_h)   Gauss multivariateSelection
    {
        O2              limitedLinear01 1;
        CH4             limitedLinear01 1;
        N2              limitedLinear01 1;
        H2O             limitedLinear01 1;
        CO2             limitedLinear01 1;
        h               limitedLinear 1;
    };
    div(((rho*nuEff)*dev2(T(grad(U))))) Gauss linear;
    div(Ji,Ii_h)    Gauss upwind;
}

laplacianSchemes
{
    default         Gauss linear corrected;
}

interpolationSchemes
{
    default         linear;
}

snGradSchemes
{
    default         corrected;
}


// ************************************************************************* //
