/*--------------------------------*- C++ -*----------------------------------*\
  =========                 |
  \\      /  F ield         | OpenFOAM: The Open Source CFD Toolbox
   \\    /   O peration     | Website:  https://openfoam.org
    \\  /    A nd           | Version:  dev
     \\/     M anipulation  |
\*---------------------------------------------------------------------------*/
FoamFile
{
    format      ascii;
    class       dictionary;
    location    "system";
    object      subsetMeshDict;
}
// * * * * * * * * * * * * * * * * * * * * * * * * * * * * * * * * * * * * * //

zone
{
    type invert;

    box1
    {
        type        box;
        zoneType    cell;
        box         (0.4 0.1 0.1) (0.6 0.3 0.3);
    }

    box2
    {
        type        box;
        zoneType    cell;
        box         (0.4 0.1 0.4) (0.6 0.3 0.6);
    }

    box3
    {
        type        box;
        zoneType    cell;
        box         (0.4 0.4 0.1) (0.6 0.6 0.3);
    }

    box4
    {
        type        box;
        zoneType    cell;
        box         (0.4 0.4 0.4) (0.6 0.6 0.6);
    }
}

patch   film;

// ************************************************************************* //
