/*--------------------------------*- C++ -*----------------------------------*\
  =========                 |
  \\      /  F ield         | OpenFOAM: The Open Source CFD Toolbox
   \\    /   O peration     | Website:  https://openfoam.org
    \\  /    A nd           | Version:  dev
     \\/     M anipulation  |
\*---------------------------------------------------------------------------*/
FoamFile
{
    format      ascii;
    class       dictionary;
    object      createBafflesDict;
}
// * * * * * * * * * * * * * * * * * * * * * * * * * * * * * * * * * * * * * //

internalFacesOnly true;

fields true;

baffles
{
    baffleFaces
    {
        type        faceZone;
        zoneName    rotatingZone;

        patches
        {
            master
            {
                name            nonCouple1;
                type            patch;
                patchFields
                {
                    #include    "nonCouplePatchFields"
                }
                inGroups        (nonCouple);
            }
            slave
            {
                name            nonCouple2;
                type            patch;
                patchFields
                {
                    #include    "nonCouplePatchFields"
                }
                inGroups        (nonCouple);
            }
        }
    }
}

// ************************************************************************* //
