/*--------------------------------*- C++ -*----------------------------------*\
| =========                 |                                                 |
| \\      /  F ield         | OpenFOAM: The Open Source CFD Toolbox           |
|  \\    /   O peration     | Version:  dev                                   |
|   \\  /    A nd           | Web:      www.OpenFOAM.org                      |
|    \\/     M anipulation  |                                                 |
\*---------------------------------------------------------------------------*/
FoamFile
{
    version     2.0;
    format      ascii;
    class       volScalarField;
    location    "0";
    object      p_rgh;
}
// * * * * * * * * * * * * * * * * * * * * * * * * * * * * * * * * * * * * * //

dimensions      [1 -1 -2 0 0 0 0];

internalField   uniform 101325;

boundaryField
{
    outlet
    {
        type            fixedFluxPressure;
        value           $internalField;
    }

    ground
    {
        type            fixedFluxPressure;

    }

    side
    {
        type            totalPressure;
        U               U;
        phi             phi;
        rho             rho;
        psi             none;
        gamma           1.4;
        p0              $internalField;
        value           $internalField;
    }

    inlet
    {
        type            fixedFluxPressure;
    }

    region0_to_pyrolysisRegion_coupledWall
    {
        type            fixedFluxPressure;
        value           $internalField;
    }
}


// ************************************************************************* //
