/*--------------------------------*- C++ -*----------------------------------*\
| =========                 |                                                 |
| \\      /  F ield         | OpenFOAM: The Open Source CFD Toolbox           |
|  \\    /   O peration     | Version:  dev                                   |
|   \\  /    A nd           | Website:  https://openfoam.org                  |
|    \\/     M anipulation  |                                                 |
\*---------------------------------------------------------------------------*/
FoamFile
{
    version     2.0;
    format      ascii;
    class       volScalarField;
    location    "0";
    object      ph_rgh;
}
// * * * * * * * * * * * * * * * * * * * * * * * * * * * * * * * * * * * * * //

dimensions      [1 -1 -2 0 0 0 0];

internalField   uniform 0;

boundaryField
{
    outlet
    {
        type            fixedValue;
        value           $internalField;
    }

    side
    {
        type            fixedFluxPressure;
        value           $internalField;
    }

    ground
    {
        type            fixedFluxPressure;
    }

    inlet
    {
        type            fixedFluxPressure;
        value           $internalField;
    }

    region0_to_pyrolysisRegion_coupledWall
    {
        type            fixedFluxPressure;
        value           $internalField;
    }
}


// ************************************************************************* //
