/*--------------------------------*- C++ -*----------------------------------*\
  =========                 |
  \\      /  F ield         | OpenFOAM: The Open Source CFD Toolbox
   \\    /   O peration     | Website:  https://openfoam.org
    \\  /    A nd           | Version:  dev
     \\/     M anipulation  |
\*---------------------------------------------------------------------------*/
FoamFile
{
    format      ascii;
    class       volVectorField;
    location    "0";
    object      U;
}
// * * * * * * * * * * * * * * * * * * * * * * * * * * * * * * * * * * * * * //

dimensions      [0 1 -1 0 0 0 0];

internalField   uniform (0 0 0);

boundaryField
{
    inlet
    {
        type            fixedValue;
        value           uniform (1 0 0);
    }
    outlet
    {
        type            pressureInletOutletVelocity;
        value           uniform (0 0 0);
    }
    walls
    {
//        type            fixedValue;
        type            movingWallVelocity;
        value           uniform (0 0 0);
    }
    defaultFaces
    {
        type            empty;
    }
    ACMI1_blockage
    {
        type            noSlip;
    }
    ACMI1_couple
    {
        type            cyclicACMI;
        value           uniform (0 0 0);
    }
    ACMI2_blockage
    {
        type            noSlip;
    }
    ACMI2_couple
    {
        type            cyclicACMI;
        value           uniform (0 0 0);
    }
}


// ************************************************************************* //
