/*--------------------------------*- C++ -*----------------------------------*\
  =========                 |
  \\      /  F ield         | OpenFOAM: The Open Source CFD Toolbox
   \\    /   O peration     | Website:  https://openfoam.org
    \\  /    A nd           | Version:  dev
     \\/     M anipulation  |
\*---------------------------------------------------------------------------*/
FoamFile
{
    format      ascii;
    class       volVectorField;
    object      U;
}
// * * * * * * * * * * * * * * * * * * * * * * * * * * * * * * * * * * * * * //

dimensions      [0 1 -1 0 0 0 0];

internalField   uniform (0 0 0);

boundaryField
{
    walls
    {
        type            noSlip;
    }

    porosityWall
    {
        type            slip;
        value           uniform (0 0 0);
    }

    inlet
    {
        type            flowRateInletVelocity;
        massFlowRate    constant 0.1;
        profile         turbulentBL;
        rhoInlet        1;          // estimate for initial rho
    }

    outlet
    {
        type            pressureInletOutletVelocity;
        value           uniform (0 0 0);
        inletValue      uniform (0 0 0);
    }
}

// ************************************************************************* //
