/*--------------------------------*- C++ -*----------------------------------*\
  =========                 |
  \\      /  F ield         | OpenFOAM: The Open Source CFD Toolbox
   \\    /   O peration     | Website:  https://openfoam.org
    \\  /    A nd           | Version:  dev
     \\/     M anipulation  |
\*---------------------------------------------------------------------------*/
FoamFile
{
    version     2.0;
    format      ascii;
    class       volVectorField;
    object      U;
}
// * * * * * * * * * * * * * * * * * * * * * * * * * * * * * * * * * * * * * //

dimensions      [0 1 -1 0 0 0 0];

internalField   uniform (0 0 0);

boundaryField
{
    Default_Boundary_Region
    {
        type            noSlip;
    }

    inlet
    {
        type            flowRateInletVelocity;
        massFlowRate    constant 5;
        rhoInlet        1000;    // Guess for rho
    }

    outlet
    {
        type            pressureInletOutletVelocity;
        value           $internalField;
    }
}


// ************************************************************************* //
