/*--------------------------------*- C++ -*----------------------------------*\
  =========                 |
  \\      /  F ield         | OpenFOAM: The Open Source CFD Toolbox
   \\    /   O peration     | Website:  https://openfoam.org
    \\  /    A nd           | Version:  dev
     \\/     M anipulation  |
\*---------------------------------------------------------------------------*/
FoamFile
{
    format      ascii;
    class       volScalarField;
    location    "0";
    object      p;
}
// * * * * * * * * * * * * * * * * * * * * * * * * * * * * * * * * * * * * * //

dimensions      [kinematicPressure];

internalField   uniform 0;

boundaryField
{
    bottom
    {
        type            fixedFluxPressure;
    }
    "(top|inlet)"
    {
        type            fixedFluxExtrapolatedPressure;
    }
    outlet
    {
        type            totalPressure;
        p0              $internalField;
        value           $internalField;
    }
    "(front|back)"
    {
        type            symmetryPlane;
    }
}

// ************************************************************************* //
