/*--------------------------------*- C++ -*----------------------------------*\
  =========                 |
  \\      /  F ield         | OpenFOAM: The Open Source CFD Toolbox
   \\    /   O peration     | Website:  https://openfoam.org
    \\  /    A nd           | Version:  dev
     \\/     M anipulation  |
\*---------------------------------------------------------------------------*/
FoamFile
{
    version     2.0;
    format      ascii;
    class       dictionary;
    object      testSlashDict;
}
// * * * * * * * * * * * * * * * * * * * * * * * * * * * * * * * * * * * * * //
// To expand this dictionary run
//     foamDictionary testSlashDict

#inputSyntax slash;

internalField 3.4;

active
{
    type            fixedValue;
    value.air       $internalField;
}

inactive
{
    type            anotherFixedValue;

    value           $../active/value.air;
    anotherValue    $!active/value.air;

    sub
    {
        value           $../../active/value.air;
        anotherValue    $!active/value.air;
    }
}

"U.*"
{
    solver GAMG;
}

e.air
{
    // This does expand
    $U.air;
}

external
{
    value $testSlashDict2!active/value.air;
}

activeWater
{
    $testSlashDict2!active;
    value.water     1000;
}

activeAir
{
    ${${FOAM_CASE}/testSlashDict2!active};
}

whichActive activeWater;

active2
{
    ${${FOAM_CASE}/testSlashDict2!$whichActive};
}


// * * * * * * * * * * * * * * * * * * * * * * * * * * * * * * * * * * * * * //
