/*--------------------------------*- C++ -*----------------------------------*\
  =========                 |
  \\      /  F ield         | OpenFOAM: The Open Source CFD Toolbox
   \\    /   O peration     | Website:  https://openfoam.org
    \\  /    A nd           | Version:  dev
     \\/     M anipulation  |
\*---------------------------------------------------------------------------*/
FoamFile
{
    format      ascii;
    class       dictionary;
    object      testDictRegex;
}
// * * * * * * * * * * * * * * * * * * * * * * * * * * * * * * * * * * * * //
#inputMode  merge

".*"        parentValue1;
"[n-z].*"   parentValue2;
"f.*"       parentValue3;
keyX        parentValue4;
keyY        parentValue5;

"(.*)Dict"
{
    foo         subdictValue0;
    // bar         $f.*;         // should this really match 'foo'?

    // result is dependent on insert order!
    "a.*c"      subdictValue3;
    "ab.*"      subdictValue2;
    "a.*"       subdictValue1;
    abcd        \1;
}

// ************************************************************************* //
