/*--------------------------------*- C++ -*----------------------------------*\
  =========                 |
  \\      /  F ield         | OpenFOAM: The Open Source CFD Toolbox
   \\    /   O peration     | Website:  https://openfoam.org
    \\  /    A nd           | Version:  dev
     \\/     M anipulation  |
\*---------------------------------------------------------------------------*/
FoamFile
{
    version     2.0;
    format      ascii;
    class       dictionary;
    object      testSlashDict;
}
// * * * * * * * * * * * * * * * * * * * * * * * * * * * * * * * * * * * * * //
// This dictionary is read by entries in testSlashDict

#inputSyntax slash;

internalField 5.6;

active
{
    type            fixedValue;
    value.air       $internalField;
}

// * * * * * * * * * * * * * * * * * * * * * * * * * * * * * * * * * * * * * //
