/*--------------------------------*- C++ -*----------------------------------*\
  =========                 |
  \\      /  F ield         | OpenFOAM: The Open Source CFD Toolbox
   \\    /   O peration     | Website:  https://openfoam.org
    \\  /    A nd           | Version:  dev
     \\/     M anipulation  |
\*---------------------------------------------------------------------------*/
FoamFile
{
    version     2.0;
    format      ascii;
    class       volScalarField;
    location    "0";
    object      air;
}
// * * * * * * * * * * * * * * * * * * * * * * * * * * * * * * * * * * * * * //

#include "include/caseSettings"

dimensions      [0 0 0 0 0 0 0];

internalField   uniform 1;

boundaryField
{
    back
    {
        type            wedge;
    }

    front
    {
        $back;
    }

    liner
    {
        $:wall.p;
    }

    cylinderHead
    {
        $liner;
    }

    piston
    {
        $liner;
    }
}


// ************************************************************************* //
