/*--------------------------------*- C++ -*----------------------------------*\
| =========                 |                                                 |
| \\      /  F ield         | OpenFOAM: The Open Source CFD Toolbox           |
|  \\    /   O peration     | Version:  dev                                   |
|   \\  /    A nd           | Website:  https://openfoam.org                  |
|    \\/     M anipulation  |                                                 |
\*---------------------------------------------------------------------------*/
FoamFile
{
    version     2.0;
    format      binary;
    class       volScalarField;
    location    "0";
    object      alphat;
}
// * * * * * * * * * * * * * * * * * * * * * * * * * * * * * * * * * * * * * //

#include "include/caseSettings"

dimensions      [1 -1 -1 0 0 0 0];

internalField   uniform 0;

boundaryField
{
    back
    {
        type            wedge;
    }
    front { $back; }
    liner { $:wall.alphat; }
    cylinderHead { $liner; }
    piston { $liner; }
}
}


// ************************************************************************* //
