/*--------------------------------*- C++ -*----------------------------------*\
  =========                 |
  \\      /  F ield         | OpenFOAM: The Open Source CFD Toolbox
   \\    /   O peration     | Website:  https://openfoam.org
    \\  /    A nd           | Version:  dev
     \\/     M anipulation  |
\*---------------------------------------------------------------------------*/
FoamFile
{
    format      binary;
    class       volScalarField;
    location    "0";
    object      epsilon;
}
// * * * * * * * * * * * * * * * * * * * * * * * * * * * * * * * * * * * * * //

dimensions      [0 2 -3 0 0 0 0];

internalField   uniform $include/caseSettings!internalField/epsilon;

boundaryField
{
    back
    {
        type            wedge;
    }

    front
    {
        $back;
    }

    liner
    {
        $include/caseSettings!wall/epsilon;
    }

    cylinderHead
    {
        $liner;
    }

    piston
    {
        $liner;
    }
}


// ************************************************************************* //
