/*--------------------------------*- C++ -*----------------------------------*\
  =========                 |
  \\      /  F ield         | OpenFOAM: The Open Source CFD Toolbox
   \\    /   O peration     | Website:  https://openfoam.org
    \\  /    A nd           | Version:  dev
     \\/     M anipulation  |
\*---------------------------------------------------------------------------*/
FoamFile
{
    version     2.0;
    format      binary;
    class       volVectorField;
    location    "0";
    object      U;
}
// * * * * * * * * * * * * * * * * * * * * * * * * * * * * * * * * * * * * * //
#inputSyntax slash;

dimensions      [0 1 -1 0 0 0 0];

internalField   uniform $include/caseSettings!internalField/U;

boundaryField
{
    back
    {
        type            wedge;
    }

    front
    {
        $back;
    }

    liner
    {
        $include/caseSettings!wall/U;
    }

    cylinderHead
    {
        $liner;
    }

    piston
    {
        $include/caseSettings!piston/U;
    }
}


// ************************************************************************* //
