/*--------------------------------*- C++ -*----------------------------------*\
| =========                 |                                                 |
| \\      /  F ield         | OpenFOAM: The Open Source CFD Toolbox           |
|  \\    /   O peration     | Version:  dev                                   |
|   \\  /    A nd           | Website:  https://openfoam.org                  |
|    \\/     M anipulation  |                                                 |
\*---------------------------------------------------------------------------*/
FoamFile
{
    version     2.0;
    format      ascii;
    class       volScalarField;
    object      omega;
}
// * * * * * * * * * * * * * * * * * * * * * * * * * * * * * * * * * * * * * //

dimensions      [0 0 -1 0 0 0 0];

internalField   uniform 0.003;

boundaryField
{
    inlet
    {
        type            fixedValue;
        value           $internalField;
    }

    walls
    {
        type            omegaWallFunction;
        value           $internalField;
    }

    ".*"
    {
        type            inletOutlet;
        inletValue      $internalField;
        value           $internalField;
    }
}

// ************************************************************************* //
