/*--------------------------------*- C++ -*----------------------------------*\
  =========                 |
  \\      /  F ield         | OpenFOAM: The Open Source CFD Toolbox
   \\    /   O peration     | Website:  https://openfoam.org
    \\  /    A nd           | Version:  dev
     \\/     M anipulation  |
\*---------------------------------------------------------------------------*/
FoamFile
{
    format      ascii;
    class       dictionary;
    location    "system";
    object      fvSolution;
}
// * * * * * * * * * * * * * * * * * * * * * * * * * * * * * * * * * * * * * //

solvers
{
    "alpha.*"
    {
        nAlphaCorr      1;
        nAlphaSubCycles 2;
    }

    p_rgh
    {
        solver          GAMG;
        smoother        DIC;

        tolerance       1e-7;
        relTol          0.01;
    }

    p_rghFinal
    {
        $p_rgh;
        relTol          0;
    }

    "U.*"
    {
        solver          PBiCGStab;
        preconditioner  DILU;

        tolerance       1e-7;
        relTol          0;
    }

    "e.*"
    {
        solver          PBiCGStab;
        preconditioner  DILU;

        tolerance       1e-7;
        relTol          0;
    }

    "(k|epsilon).*"
    {
        solver          PBiCGStab;
        preconditioner  DILU;

        tolerance       1e-7;
        relTol          0;
    }
}

PIMPLE
{
    nCorrectors      1;
    nNonOrthogonalCorrectors 1;
}

relaxationFactors
{
    equations
    {
        ".*"            1;
    }
}


// ************************************************************************* //
