/*--------------------------------*- C++ -*----------------------------------*\
  =========                 |
  \\      /  F ield         | OpenFOAM: The Open Source CFD Toolbox
   \\    /   O peration     | Website:  https://openfoam.org
    \\  /    A nd           | Version:  dev
     \\/     M anipulation  |
\*---------------------------------------------------------------------------*/
FoamFile
{
    format      ascii;
    class       volScalarField;
    location    "0";
    object      epsilon;
}
// * * * * * * * * * * * * * * * * * * * * * * * * * * * * * * * * * * * * * //

epsilonInitial  0.001;

dimensions      [turbulentEpsilon];

internalField   uniform $epsilonInitial;

boundaryField
{
    wall
    {
        type            epsilonWallFunction;
        value           uniform $epsilonInitial;
    }
}

// ************************************************************************* //
