/*--------------------------------*- C++ -*----------------------------------*\
  =========                 |
  \\      /  F ield         | OpenFOAM: The Open Source CFD Toolbox
   \\    /   O peration     | Website:  https://openfoam.org
    \\  /    A nd           | Version:  dev
     \\/     M anipulation  |
\*---------------------------------------------------------------------------*/
FoamFile
{
    format      ascii;
    class       volScalarField;
    object      omega;
}
// * * * * * * * * * * * * * * * * * * * * * * * * * * * * * * * * * * * * * //

omegaInitial    0.1;

dimensions      [0 0 -1 0 0 0 0];

internalField   uniform $omegaInitial;

boundaryField
{
    wall
    {
        type            omegaWallFunction;
        value           uniform $omegaInitial;
    }
}

// ************************************************************************* //
