/*--------------------------------*- C++ -*----------------------------------*\
  =========                 |
  \\      /  F ield         | OpenFOAM: The Open Source CFD Toolbox
   \\    /   O peration     | Website:  https://openfoam.org
    \\  /    A nd           | Version:  dev
     \\/     M anipulation  |
\*---------------------------------------------------------------------------*/
FoamFile
{
    format      ascii;
    class       dictionary;
    location    "system/metal";
    object      fvSolution;
}
// * * * * * * * * * * * * * * * * * * * * * * * * * * * * * * * * * * * * * //

solvers
{
    e
    {
        solver           GAMG;
        smoother         symGaussSeidel;
        tolerance        1e-6;
        relTol           0.1;
        maxIter          10;
    }

    eFinal
    {
        $e;
        relTol           0;
    }
}

PIMPLE
{
    nNonOrthogonalCorrectors 0;
}

// ************************************************************************* //
