/*--------------------------------*- C++ -*----------------------------------*\
  =========                 |
  \\      /  F ield         | OpenFOAM: The Open Source CFD Toolbox
   \\    /   O peration     | Website:  https://openfoam.org
    \\  /    A nd           | Version:  dev
     \\/     M anipulation  |
\*---------------------------------------------------------------------------*/
FoamFile
{
    format      ascii;
    class       volScalarField;
    location    "0";
    object      epsilon;
}
// * * * * * * * * * * * * * * * * * * * * * * * * * * * * * * * * * * * * * //

dimensions      [0 2 -3 0 0 0 0];

internalField   uniform 0.007;

boundaryField
{
    rotor
    {
        type            epsilonWallFunction;
        value           $internalField;
        Cmu             0.09;
        kappa           0.41;
        E               9.8;
    }
    stator
    {
        type            epsilonWallFunction;
        value           $internalField;
        Cmu             0.09;
        kappa           0.41;
        E               9.8;
    }
    front
    {
        type            empty;
    }
    back
    {
        type            empty;
    }
}


// ************************************************************************* //
