/*--------------------------------*- C++ -*----------------------------------*\
  =========                 |
  \\      /  F ield         | OpenFOAM: The Open Source CFD Toolbox
   \\    /   O peration     | Website:  https://openfoam.org
    \\  /    A nd           | Version:  dev
     \\/     M anipulation  |
\*---------------------------------------------------------------------------*/
FoamFile
{
    format      ascii;
    class       dictionary;
    location    "constant";
    object      phaseProperties;
}
// * * * * * * * * * * * * * * * * * * * * * * * * * * * * * * * * * * * * * //

phases          (air water);

air
{
    type            purePhaseModel;

    diameterModel   IATE;
    IATECoeffs
    {
        dMax 1e-2;
        dMin 1e-4;

        residualAlpha 1e-6;

        sources
        (
            wakeEntrainmentCoalescence
            {
                Cwe         0.002;
            }

            randomCoalescence
            {
                Crc         0.04;
                C           3;
                alphaMax    0.75;
            }

            turbulentBreakUp
            {
                Cti         0.085;
                WeCr        6;
            }
        );
    }

    residualAlpha   1e-6;
}

water
{
    type          purePhaseModel;

    diameterModel constant;
    constantCoeffs
    {
        d               1e-4;
    }

    residualAlpha   1e-6;
}

blending
{
    default
    {
        type            linear;
        minFullyContinuousAlpha.air 0.7;
        minPartlyContinuousAlpha.air 0.3;
        minFullyContinuousAlpha.water 0.7;
        minPartlyContinuousAlpha.water 0.3;
    }

    segregated
    {
        type            linear;
        minFullyContinuousAlpha.air 0.7;
        minPartlyContinuousAlpha.air 0.5;
        minFullyContinuousAlpha.water 0.7;
        minPartlyContinuousAlpha.water 0.5;
    }
}

surfaceTension
{
    air_water
    {
        type            constant;
        sigma           0.07;
    }
}

// ************************************************************************* //
