/*--------------------------------*- C++ -*----------------------------------*\
| =========                 |                                                 |
| \\      /  F ield         | OpenFOAM: The Open Source CFD Toolbox           |
|  \\    /   O peration     | Version:  dev                                   |
|   \\  /    A nd           | Web:      www.OpenFOAM.org                      |
|    \\/     M anipulation  |                                                 |
\*---------------------------------------------------------------------------*/
FoamFile
{
    version     2.0;
    format      ascii;
    class       dictionary;
    object      controlDict;
}
// * * * * * * * * * * * * * * * * * * * * * * * * * * * * * * * * * * * * * //

application     XXX;

startFrom       latestTime;

startTime       0;

stopAt          endTime;

endTime         0.1;

deltaT          1e-05;

writeControl    timeStep;

writeInterval   10;

purgeWrite      0;

writeFormat     ascii;

writePrecision  6;

writeCompression off;

timeFormat      general;

timePrecision   6;

runTimeModifiable true;

functions
{
    fieldAverage1
    {
        // Type of functionObject
        type            fieldAverage;

        // Where to load it from (if not already in solver)
        libs ("libfieldFunctionObjects.so");

        // Function object enabled flag
        enabled         true;

        // When to output the average fields
        writeControl   writeTime;

        // Fields to be averaged - runTime modifiable
        fields
        (
            U
            {
                mean        on;
                prime2Mean  on;
                base        time;
                window      0.01; // optional averaging window
            }

            p
            {
                mean        on;
                prime2Mean  on;
                base        time;
                window      0.01; // optional averaging window
            }
        );
    }
}

// ************************************************************************* //
