/*--------------------------------*- C++ -*----------------------------------*\
  =========                 |
  \\      /  F ield         | OpenFOAM: The Open Source CFD Toolbox
   \\    /   O peration     | Website:  https://openfoam.org
    \\  /    A nd           | Version:  dev
     \\/     M anipulation  |
\*---------------------------------------------------------------------------*/
FoamFile
{
    version     2.0;
    format      ascii;
    class       dictionary;
    location    "system";
    object      fvSolution;
}
// * * * * * * * * * * * * * * * * * * * * * * * * * * * * * * * * * * * * * //

solvers
{
    "rho.*"
    {
        solver          PCG;
        preconditioner  DIC;
        tolerance       1e-6;
        relTol          0;
    };

    p_rgh
    {
        solver              GAMG;
        tolerance           1e-6;
        relTol              0.01;
        smoother            GaussSeidel;
    };

    p_rghFinal
    {
        $p_rgh;
        relTol              0;
    };

    ph_rgh
    {
        $p_rgh;
    }


    "(U|Yi|k|h|omega)"
    {
        solver          PBiCGStab;
        preconditioner  DILU;
        tolerance       1e-6;
        relTol          0.1;
        nSweeps         1;
    };

    "(U|Yi|k|h|omega)Final"
    {
        $U;
        relTol          0;
    };

    Ii
    {
        solver                  GAMG;
        tolerance               1e-4;
        relTol                  0;
        smoother                symGaussSeidel;
        maxIter                 1;
        nPostSweeps             1;
    }

    "(G)Final"
    {
        solver          PCG;
        preconditioner  DIC;
        tolerance       1e-04;
        relTol          0;
    }
}

PIMPLE
{
    momentumPredictor yes;
    nOuterCorrectors  1;
    nCorrectors       2;
    nNonOrthogonalCorrectors 0;

    hydrostaticInitialization yes;
    nHydrostaticCorrectors 5;
}

relaxationFactors
{
    equations
    {
        ".*"            1;
    }
}


// ************************************************************************* //
