/*--------------------------------*- C++ -*----------------------------------*\
  =========                 |
  \\      /  F ield         | OpenFOAM: The Open Source CFD Toolbox
   \\    /   O peration     | Website:  https://openfoam.org
    \\  /    A nd           | Version:  dev
     \\/     M anipulation  |
\*---------------------------------------------------------------------------*/
FoamFile
{
    version     2.0;
    format      ascii;
    class       dictionary;
    location    "constant";
    object      phaseProperties;
}
// * * * * * * * * * * * * * * * * * * * * * * * * * * * * * * * * * * * * * //

type    thermalPhaseChangeTwoPhaseSystem;

phases (gas liquid);

phaseChange on;

gas
{
    type            purePhaseModel;
    diameterModel   constant;

    constantCoeffs
    {
        d               0.00045;
    }

    Sct             0.7;

    residualAlpha   1e-4;
}

liquid
{
    type            purePhaseModel;
    diameterModel   constant;
    constantCoeffs
    {
        d               0.00045;
    }
    Sct             0.7;

    residualAlpha   1e-4;
}

blending
{
    default
    {
        type            none;
        continuousPhase liquid;
    }
}

surfaceTension
();

saturationModel
{
        type constant;

        Tsat 373;
        pSat 1e5;
};

aspectRatio
(
    (gas in liquid)
    {
        type            constant;
        E0              1.0;
    }
);

drag
(
    (gas in liquid)
    {
        type            SchillerNaumann;
        residualRe      1e-3;
        swarmCorrection
        {
            type        none;
        }
    }
);

virtualMass
(
    (gas in liquid)
    {
        type            constantCoefficient;
        Cvm             0.5;
    }
);

heatTransfer.gas
(
    (gas in liquid)
    {
        type spherical;
        residualAlpha 1e-3;
    }
);

heatTransfer.liquid
(
    (gas in liquid)
    {
        type RanzMarshall;
        residualAlpha 1e-3;
    }
);

phaseTransfer
(
);

lift
();

wallLubrication
();

turbulentDispersion
();

// Minimum allowable pressure
pMin            10000;


// ************************************************************************* //
