/*--------------------------------*- C++ -*----------------------------------*\
  =========                 |
  \\      /  F ield         | OpenFOAM: The Open Source CFD Toolbox
   \\    /   O peration     | Website:  https://openfoam.org
    \\  /    A nd           | Version:  dev
     \\/     M anipulation  |
\*---------------------------------------------------------------------------*/
FoamFile
{
    version     2.0;
    format      ascii;
    class       dictionary;
    object      surfaceFeaturesDict;
}
// * * * * * * * * * * * * * * * * * * * * * * * * * * * * * * * * * * * * * //

shaftRotating
{
    surfaces ("shaftRotating.stl");

    includedAngle   100;

    subsetFeatures
    {
        // Remove the top feature
        insideBox       (-0.1 -0.1 -0.1)(0.1 0.1 0.1);
    }
}

vessel
{
    surfaces ("vessel.stl");

    includedAngle       120;

    subsetFeatures
    {
        // Keep nonManifold edges (edges with >2 connected faces where
        // the faces form more than two different normal planes)
        nonManifoldEdges    no;

        // Keep open edges (edges with 1 connected face)
        openEdges           no;
    }
}

spargerInletStirrer
{
    surfaces
    (
        "spargerInlet.stl"
        "stirrer.stl"
    );

    includedAngle       120;
}

stirrerBaffles
{
    surfaces ("stirrer_baffles.stl");

    includedAngle   120;

    baffles (stirrer);
}

rotating
{
    surfaces ("rotating.stl");

    includedAngle   120;

    baffles (MRF);
}

baffles
{
    surfaces ("baffles.stl");

    includedAngle   120;

    baffles (baffles);
}

// ************************************************************************* //
