/*--------------------------------*- C++ -*----------------------------------*\
  =========                 |
  \\      /  F ield         | OpenFOAM: The Open Source CFD Toolbox
   \\    /   O peration     | Website:  https://openfoam.org
    \\  /    A nd           | Version:  dev
     \\/     M anipulation  |
\*---------------------------------------------------------------------------*/
FoamFile
{
    format      ascii;
    class       volScalarField;
    object      alpha.liquid;
}
// * * * * * * * * * * * * * * * * * * * * * * * * * * * * * * * * * * * * * //

dimensions      [0 0 0 0 0 0 0];

internalField   uniform 0;

boundaryField
{
    region0_to_plate_plate
    {
        type            zeroGradient;
    }

    bottom
    {
        type            zeroGradient;
    }

    atmosphere
    {
        type            inletOutlet;
        inletValue      $internalField;
    }

    #includeEtc "caseDicts/setConstraintTypes"
}

// ************************************************************************* //
