/*--------------------------------*- C++ -*----------------------------------*\
  =========                 |
  \\      /  F ield         | OpenFOAM: The Open Source CFD Toolbox
   \\    /   O peration     | Website:  https://openfoam.org
    \\  /    A nd           | Version:  dev
     \\/     M anipulation  |
\*---------------------------------------------------------------------------*/
FoamFile
{
    version     2.0;
    format      ascii;
    class       volScalarField;
    object      p_rgh;
}
// * * * * * * * * * * * * * * * * * * * * * * * * * * * * * * * * * * * * * //

dimensions      [1 -1 -2 0 0 0 0];

internalField   uniform 1e5;

boundaryField
{
    region0_to_plateRegion_plateFaces
    {
        type            fixedFluxPressure;
        value           $internalField;
    }

    bottom
    {
        type            fixedFluxPressure;
        value           $internalField;
    }

    atmosphere
    {
        type            totalPressure;
        p0              $internalField;
        rho             thermo:rho;
    }

    #includeEtc "caseDicts/setConstraintTypes"
}

// ************************************************************************* //
