/*--------------------------------*- C++ -*----------------------------------*\
  =========                 |
  \\      /  F ield         | OpenFOAM: The Open Source CFD Toolbox
   \\    /   O peration     | Website:  https://openfoam.org
    \\  /    A nd           | Version:  dev
     \\/     M anipulation  |
\*---------------------------------------------------------------------------*/
FoamFile
{
    format      ascii;
    class       dictionary;
    object      snappyHexMeshDict;
}
// * * * * * * * * * * * * * * * * * * * * * * * * * * * * * * * * * * * * * //

castellatedMesh true;
snap            true;
addLayers       false;

geometry
{
    couple
    {
        type        triSurfaceMesh;
        file        "couple.obj";
    }

    innerInlet
    {
        type        triSurfaceMesh;
        file        "innerInlet.obj";
    }

    outerInlet
    {
        type        triSurfaceMesh;
        file        "outerInlet.obj";
    }

    innerOutlet
    {
        type        triSurfaceMesh;
        file        "innerOutlet.obj";
    }

    outerOutlet
    {
        type        triSurfaceMesh;
        file        "outerOutlet.obj";
    }

    rotorBlades
    {
        type        triSurfaceMesh;
        file        "rotorBlades.obj";
    }

    shaft
    {
        type        triSurfaceMesh;
        file        "shaft.obj";
    }

    statorBlades
    {
        type        triSurfaceMesh;
        file        "statorBlades.obj";
    }

    walls
    {
        type        triSurfaceMesh;
        file        "wall.obj";
    }
};

castellatedMeshControls
{
    maxLocalCells 100000;
    maxGlobalCells 2000000;
    minRefinementCells 0;
    maxLoadUnbalance 0.10;
    nCellsBetweenLevels 2;

    features
    (
        {
            file        "couple.eMesh";
            level       2;
        }
        {
            file        "rotorBlades.eMesh";
            level       2;
        }
        {
            file        "shaft.eMesh";
            level       1;
        }
        {
            file        "statorBlades.eMesh";
            level       2;
        }
        {
            file        "wall.eMesh";
            level       1;
        }
    );

    refinementSurfaces
    {
        couple
        {
            level       (2 2);
            faceZone    couple;
            cellZone    rotating;
            mode        inside;
        }

        innerInlet
        {
            level       (1 1);
            patchInfo
            {
                type patch;
                inGroups (inlet);
            }
        }

        outerInlet
        {
            level       (1 1);
            patchInfo
            {
                type patch;
                inGroups (inlet);
            }
        }

        innerOutlet
        {
            level       (1 1);
            patchInfo
            {
                type patch;
                inGroups (outlet);
            }
        }

        outerOutlet
        {
            level       (1 1);
            patchInfo
            {
                type patch;
                inGroups (outlet);
            }
        }

        rotorBlades
        {
            level       (2 2);
            patchInfo
            {
                type wall;
                inGroups (movingWalls);
            }
            faceZone rotorBlades;
            faceType baffle;
        }

        shaft
        {
            level       (1 1);
            patchInfo
            {
                type wall;
                inGroups (movingWalls);
            }
        }

        statorBlades
        {
            level       (2 2);
            patchInfo
            {
                type wall;
                inGroups (staticWalls);
            }
            faceZone statorBlades;
            faceType baffle;
        }

        walls
        {
            level       (1 1);
            patchInfo
            {
                type wall;
                inGroups (staticWalls);
            }
        }
    }

    resolveFeatureAngle 30;

    insidePoint (0.035 0.043 0.017);

    allowFreeStandingZoneFaces true;
}

snapControls
{
    nSmoothPatch 3;
    tolerance 1.0;
    nSolveIter 100;
    nRelaxIter 5;
    nFeatureSnapIter 5;
}

addLayersControls
{
    relativeSizes true;
    layers
    {
    }
    expansionRatio 1.0;
    finalLayerThickness 0.3;
    minThickness 0.1;
    nGrow 0;
    featureAngle 60;
    slipFeatureAngle 15;
    nRelaxIter 3;
    nSmoothSurfaceNormals 1;
    nSmoothNormals 3;
    nSmoothThickness 10;
    maxFaceThicknessRatio 0.5;
    maxThicknessToMedialRatio 0.3;
    minMedianAxisAngle 90;
    nBufferCellsNoExtrude 0;
    nLayerIter 50;
}

meshQualityControls
{
    maxNonOrtho 65;

    maxBoundarySkewness 20;
    maxInternalSkewness 4;

    maxConcave 80;
    minVol -1e30;
    minTetQuality -1;
    minTwist 0.01;
    minDeterminant 0.001;
    minFaceWeight 0.05;
    minVolRatio 0.01;
    nSmoothScale 4;
    errorReduction 0.75;
    relaxed
    {
        maxNonOrtho 75;
    }
}

mergeTolerance 1e-6;

// ************************************************************************* //
