/*--------------------------------*- C++ -*----------------------------------*\
| =========                 |                                                 |
| \\      /  F ield         | OpenFOAM: The Open Source CFD Toolbox           |
|  \\    /   O peration     | Version:  dev                                   |
|   \\  /    A nd           | Website:  https://openfoam.org                  |
|    \\/     M anipulation  |                                                 |
\*---------------------------------------------------------------------------*/
FoamFile
{
    version     2.0;
    format      ascii;
    class       dictionary;
    location    "system";
    object      controlDict;
}
// * * * * * * * * * * * * * * * * * * * * * * * * * * * * * * * * * * * * * //

application     reactingMultiphaseEulerFoam;

startFrom       startTime;

startTime       0;

stopAt          endTime;

endTime         100;

deltaT          0.005;

writeControl    runTime;

writeInterval   1;

purgeWrite      0;

writeFormat     ascii;

writePrecision  6;

writeCompression off;

timeFormat      general;

timePrecision   6;

runTimeModifiable yes;

adjustTimeStep  no;

maxCo           0.5;

maxDeltaT       1;

functions
{
    fieldAverage1
    {
        type            fieldAverage;
        libs            ("libfieldFunctionObjects.so");
        writeControl    writeTime;
        fields
        (
            U.air1
            {
                 mean        on;
                 prime2Mean  off;
                 base        time;
            }

            U.air2
            {
                 mean        on;
                 prime2Mean  off;
                 base        time;
            }

            U.water
            {
                 mean        on;
                 prime2Mean  off;
                 base        time;
            }

            alpha.air1
            {
                 mean        on;
                 prime2Mean  off;
                 base        time;
            }

            alpha.air2
            {
                 mean        on;
                 prime2Mean  off;
                 base        time;
            }

            p
            {
                 mean        on;
                 prime2Mean  off;
                 base        time;
            }
        );
    }
}


// ************************************************************************* //
