/*--------------------------------*- C++ -*----------------------------------*\
  =========                 |
  \\      /  F ield         | OpenFOAM: The Open Source CFD Toolbox
   \\    /   O peration     | Website:  https://openfoam.org
    \\  /    A nd           | Version:  dev
     \\/     M anipulation  |
\*---------------------------------------------------------------------------*/
FoamFile
{
    version     2.0;
    format      ascii;
    class       dictionary;
    location    "system";
    object      setFieldsDict;
}
// * * * * * * * * * * * * * * * * * * * * * * * * * * * * * * * * * * * * * //

defaultFieldValues
(
    volScalarFieldValue alpha.air1 0
    volScalarFieldValue alpha.air2 1
    volScalarFieldValue alpha.water 0
);

regions
(
    boxToCell
    {
        box (0 0 -0.1) (0.15 0.701 0.1);
        fieldValues
        (
            volScalarFieldValue alpha.air2 0
            volScalarFieldValue alpha.water 1
        );
    }
);


// ************************************************************************* //
