/*--------------------------------*- C++ -*----------------------------------*\
  =========                 |
  \\      /  F ield         | OpenFOAM: The Open Source CFD Toolbox
   \\    /   O peration     | Website:  https://openfoam.org
    \\  /    A nd           | Version:  dev
     \\/     M anipulation  |
\*---------------------------------------------------------------------------*/
FoamFile
{
    format      ascii;
    class       volScalarField;
    location    "0";
    object      epsilon;
}
// * * * * * * * * * * * * * * * * * * * * * * * * * * * * * * * * * * * * * //

dimensions      [turbulentEpsilon];

internalField   uniform 200;

boundaryField
{
    inlet
    {
        type            turbulentEpsilon;
        mixingLength    0.01;       // 1cm - half channel height
        value           $internalField;
    }

    outlet1
    {
        type            inletOutlet;
        inletValue      $internalField;
    }

    outlet2
    {
        type            inletOutlet;
        inletValue      $internalField;
    }

    defaultFaces
    {
        type            epsilonWallFunction;
        value           $internalField;
    }
}


// ************************************************************************* //
