/*--------------------------------*- C++ -*----------------------------------*\
  =========                 |
  \\      /  F ield         | OpenFOAM: The Open Source CFD Toolbox
   \\    /   O peration     | Website:  https://openfoam.org
    \\  /    A nd           | Version:  dev
     \\/     M anipulation  |
\*---------------------------------------------------------------------------*/
FoamFile
{
    format      ascii;
    class       volVectorField;
    location    "0";
    object      U;
}
// * * * * * * * * * * * * * * * * * * * * * * * * * * * * * * * * * * * * * //

dimensions      [velocity];

internalField   uniform (0 0 0);

boundaryField
{
    #includeEtc "caseDicts/setConstraintTypes"

    movingWall
    {
        type            movingWallVelocity;
        value           $internalField;
    }

    farFieldMoving
    {
        type            noSlip;
    }

    fixedWall
    {
        type            noSlip;
    }

    left
    {
        type            pressureInletOutletVelocity;
    }

    farField
    {
        type            noSlip;
    }
}

// ************************************************************************* //
