/*--------------------------------*- C++ -*----------------------------------*\
  =========                 |
  \\      /  F ield         | OpenFOAM: The Open Source CFD Toolbox
   \\    /   O peration     | Website:  https://openfoam.org
    \\  /    A nd           | Version:  dev
     \\/     M anipulation  |
\*---------------------------------------------------------------------------*/
FoamFile
{
    format      ascii;
    class       volVectorField;
    location    "0";
    object      U;
}
// * * * * * * * * * * * * * * * * * * * * * * * * * * * * * * * * * * * * * //

speed           250;
angleOfAttack   0; // degs

#codeBlock
#codeInclude    "transform.H"
angle           #calc "-degToRad($angleOfAttack)";
liftDir         #calc "transform(Ry($<scalar>angle), vector(0, 0, 1))";
dragDir         #calc "transform(Ry($<scalar>angle), vector(1, 0, 0))";

Uinlet          #calc "$speed*$<vector>dragDir";
#endCodeBlock

dimensions      [0 1 -1 0 0 0 0];

internalField   uniform $Uinlet;

boundaryField
{
    freestream
    {
        type            freestreamVelocity;
        freestreamValue uniform $Uinlet;
        value           uniform $Uinlet;
    }

    wall
    {
        type            noSlip;
    }

    #includeEtc "caseDicts/setConstraintTypes"
}

// ************************************************************************* //
