/*--------------------------------*- C++ -*----------------------------------*\
  =========                 |
  \\      /  F ield         | OpenFOAM: The Open Source CFD Toolbox
   \\    /   O peration     | Website:  https://openfoam.org
    \\  /    A nd           | Version:  dev
     \\/     M anipulation  |
\*---------------------------------------------------------------------------*/
FoamFile
{
    format      ascii;
    class       volScalarField;
    location    "0";
    object      k;
}
// * * * * * * * * * * * * * * * * * * * * * * * * * * * * * * * * * * * * * //

kInlet          0.01;

dimensions      [turbulentKineticEnergy];

internalField   uniform $kInlet;

boundaryField
{
    inlet
    {
        type            turbulentKineticEnergy;
        intensity       0.02;
        value           uniform $kInlet;
    }

    atmosphere
    {
        type            inletOutlet;
        inletValue      uniform $kInlet;
    }

    #includeEtc "caseDicts/setConstraintTypes"
}

// ************************************************************************* //
