/*--------------------------------*- C++ -*----------------------------------*\
  =========                 |
  \\      /  F ield         | OpenFOAM: The Open Source CFD Toolbox
   \\    /   O peration     | Website:  https://openfoam.org
    \\  /    A nd           | Version:  dev
     \\/     M anipulation  |
\*---------------------------------------------------------------------------*/
FoamFile
{
    format      ascii;
    class       dictionary;
    location    "constant";
    object      phaseProperties;
}
// * * * * * * * * * * * * * * * * * * * * * * * * * * * * * * * * * * * * * //

phases          (air1 air2 air3 water);

air1
{
    type            pureIsothermalPhaseModel;

    diameterModel
    {
        type            populationBalance;
        populationBalance bubbles;
        nGroups         20;
    }

    residualAlpha   1e-6;
}

air2
{
    type            pureIsothermalPhaseModel;

    diameterModel
    {
        type            populationBalance;
        populationBalance bubbles;
        nGroups         5;
    }

    residualAlpha   1e-6;
}

air3
{
    type            pureIsothermalPhaseModel;

    diameterModel
    {
        type            populationBalance;
        populationBalance bubbles;
        nGroups         4;
    }

    residualAlpha   1e-6;
}

water
{
    type            pureIsothermalPhaseModel;

    diameterModel   none;

    residualAlpha   1e-6;
}

blending
{
    default
    {
        type            continuous;
        phase           water;
    }
}

surfaceTension
{}

bubbles
{
    continuousPhase water;

    sphericalDiameters
    {
        type            exponential;
        min             2.8193481473E-02;
        max             1.2407009818E+00;
    }

    shapeModel      spherical;

    coalescenceModels
    ();

    breakupModels
    ();

    binaryBreakupModels
    (
        powerLawUniformBinary
        {
            power           2.0;
        }
    );
}

// ************************************************************************* //
