/*--------------------------------*- C++ -*----------------------------------*\
| =========                 |                                                 |
| \\      /  F ield         | OpenFOAM: The Open Source CFD Toolbox           |
|  \\    /   O peration     | Version:  dev                                   |
|   \\  /    A nd           | Web:      www.OpenFOAM.org                      |
|    \\/     M anipulation  |                                                 |
\*---------------------------------------------------------------------------*/
FoamFile
{
    version     2.0;
    format      ascii;
    class       dictionary;
    object      controlDict;
}
// * * * * * * * * * * * * * * * * * * * * * * * * * * * * * * * * * * * * * //

// So we get a decent warning if we have multiple functionObject entries
// with the same name.
#inputMode error;

application     icoFoam;

startFrom       startTime;

startTime       0;

stopAt          endTime;

endTime         0.5;

deltaT          0.005;

writeControl    timeStep;

writeInterval   20;

purgeWrite      0;

writeFormat     ascii;

writePrecision  6;

writeCompression uncompressed;

timeFormat      general;

timePrecision   6;

runTimeModifiable yes;

functions
{
    writeVTK
    {
        type            writeVTK;

        // Where to load it from
        libs ("libfoamToVTK.so");

        // When to write:
        //  timeStep            (with optional writeInterval)
        //  writeTime          (with optional writeInterval)
        //  adjustableTime
        //  runTime
        //  clockTime
        //  cpuTime
        writeControl   writeTime;

        // Write every writeInterval (only valid for timeStemp, writeTime)
        writeInterval  1;

        // Interval of time (valid for adjustableTime, runTime, clockTime,
        //  cpuTime)
        writeInterval   1;

        // Objects to write
        objectNames    ();
    }
}

// ************************************************************************* //
