/*--------------------------------*- C++ -*----------------------------------*\
| =========                 |                                                 |
| \\      /  F ield         | OpenFOAM: The Open Source CFD Toolbox           |
|  \\    /   O peration     | Version:  dev                                   |
|   \\  /    A nd           | Website:  https://openfoam.org                  |
|    \\/     M anipulation  |                                                 |
\*---------------------------------------------------------------------------*/
FoamFile
{
    version     2.0;
    format      ascii;
    class       dictionary;
    object      blockMeshDict;
}
// * * * * * * * * * * * * * * * * * * * * * * * * * * * * * * * * * * * * * //

convertToMeters 1;

vertices
(
    (0 0 -0.1)
    (1 0 -0.1)
    (1 2 -0.1)
    (0 2 -0.1)
    (0 0 0.1)
    (1 0 0.1)
    (1 2 0.1)
    (0 2 0.1)
);

blocks
(
    hex (0 1 2 3 4 5 6 7) (80 160 1) simpleGrading (1 1 1)
);

patches
(
    wall walls
    (
        (3 7 6 2)
        (0 4 7 3)
        (2 6 5 1)
        (1 5 4 0)
    )
    empty frontAndBack
    (
        (0 3 2 1)
        (4 5 6 7)
    )
);

// ************************************************************************* //
