/*--------------------------------*- C++ -*----------------------------------*\
  =========                 |
  \\      /  F ield         | OpenFOAM: The Open Source CFD Toolbox
   \\    /   O peration     | Website:  https://openfoam.org
    \\  /    A nd           | Version:  dev
     \\/     M anipulation  |
\*---------------------------------------------------------------------------*/
FoamFile
{
    version     2.0;
    format      ascii;
    class       dictionary;
    location    "constant";
    object      SurfaceFilmProperties;
}
// * * * * * * * * * * * * * * * * * * * * * * * * * * * * * * * * * * * * * //

surfaceFilmModel thermoSingleLayer;

regionName      wallFilm;

thermophysicalProperties
{
    type        liquid;

    useReferenceValues  no;
    liquid      H2O;
}

viscosity
{
    model        liquid;
}

deltaWet    1e-4;
hydrophilic no;

momentumTransport
{
    model       laminar;
    Cf          0.005;
}

forces
{
    thermocapillary;
}

upperSurfaceModels
{
    heatTransfer
    {
        model    constant;
        c0       1e-8;
    }
}

lowerSurfaceModels
{
    heatTransfer
    {
        model   constant;
        c0      1e-8;
    }
}


// ************************************************************************* //
