/*--------------------------------*- C++ -*----------------------------------*\
  =========                 |
  \\      /  F ield         | OpenFOAM: The Open Source CFD Toolbox
   \\    /   O peration     | Website:  https://openfoam.org
    \\  /    A nd           | Version:  dev
     \\/     M anipulation  |
\*---------------------------------------------------------------------------*/
FoamFile
{
    format      ascii;
    class       dictionary;
    location    "system";
    object      controlDict;
}
// * * * * * * * * * * * * * * * * * * * * * * * * * * * * * * * * * * * * * //

application     pimpleFoam;

startFrom       startTime;

startTime       0;

stopAt          endTime;

endTime         5;

deltaT          1e-5;

writeControl    adjustableRunTime;

writeInterval   1e-2;

purgeWrite      0;

writeFormat     binary;

writePrecision  10;

writeCompression off;

timeFormat      general;

timePrecision   6;

runTimeModifiable true;

adjustTimeStep  yes;

maxCo           0.9;

functions
{
    sixDoFRigidBodyState
    {
        type           sixDoFRigidBodyState;
        libs           ("libsixDoFRigidBodyState.so");
        angleFormat    degrees;
    }
}

// ************************************************************************* //
