/*--------------------------------*- C++ -*----------------------------------*\
  =========                 |
  \\      /  F ield         | OpenFOAM: The Open Source CFD Toolbox
   \\    /   O peration     | Website:  https://openfoam.org
    \\  /    A nd           | Version:  dev
     \\/     M anipulation  |
\*---------------------------------------------------------------------------*/
FoamFile
{
    format      ascii;
    class       dictionary;
    object      createZonesDict;
}
// * * * * * * * * * * * * * * * * * * * * * * * * * * * * * * * * * * * * * //

x349
{
    type        box;
    zoneType    cell;
    box         (3.48 -0.1 -0.1) (3.5 0.1 0.1);
}

x349_wall
{
    type        box;
    zoneType    cell;
    box         (3.48 0.0093 -0.1) (3.5 0.1 0.1);
}

x349_bulk
{
    type        box;
    zoneType    cell;
    box         (3.48 0.0 -0.1) (3.5 0.005 0.1);
}

// ************************************************************************* //
