/*--------------------------------*- C++ -*----------------------------------*\
  =========                 |
  \\      /  F ield         | OpenFOAM: The Open Source CFD Toolbox
   \\    /   O peration     | Website:  https://openfoam.org
    \\  /    A nd           | Version:  dev
     \\/     M anipulation  |
\*---------------------------------------------------------------------------*/
FoamFile
{
    format      ascii;
    class       LagrangianScalarField;
    location    "0/compressibleVoF/Lagrangian/droplets";
    object      rho;
}
// * * * * * * * * * * * * * * * * * * * * * * * * * * * * * * * * * * * * * //

uniformValue    $../../../../constant/compressibleVoF/physicalProperties.water!mixture/equationOfState/rho;

#include "../../../Lagrangian/droplets/rho"


// ************************************************************************* //
