/*--------------------------------*- C++ -*----------------------------------*\
| =========                 |                                                 |
| \\      /  F ield         | OpenFOAM: The Open Source CFD Toolbox           |
|  \\    /   O peration     | Version:  dev                                   |
|   \\  /    A nd           | Web:      www.OpenFOAM.org                      |
|    \\/     M anipulation  |                                                 |
\*---------------------------------------------------------------------------*/
FoamFile
{
    version     2.0;
    format      ascii;
    class       dictionary;
    location    "constant";
    object      thermophysicalProperties;
}
// * * * * * * * * * * * * * * * * * * * * * * * * * * * * * * * * * * * * * //

thermoType
{
    type            heheuPsiThermo;
    mixture         homogeneousMixture;
    transport       sutherland;
    thermo          janaf;
    equationOfState perfectGas;
    specie          specie;
    energy          absoluteEnthalpy;
}

stoichiometricAirFuelMassRatio stoichiometricAirFuelMassRatio [0 0 0 0 0 0 0] 15.675;

reactants
{
    specie
    {
        nMoles          24.8095;
        molWeight       29.4649;
    }
    thermodynamics
    {
        Tlow            200;
        Thigh           5000;
        Tcommon         1000;
        highCpCoeffs    ( 3.28069 0.00195035 -6.53483e-07 1.00239e-10 -5.64653e-15 -1609.55 4.41496 );
        lowCpCoeffs     ( 3.47696 0.000367499 1.84866e-06 -9.8993e-10 -3.10214e-14 -1570.81 3.76075 );
    }
    transport
    {
        As              1.67212e-06;
        Ts              170.672;
    }
}

products
{
    specie
    {
        nMoles          1;
        molWeight       28.3233;
    }
    thermodynamics
    {
        Tlow            200;
        Thigh           5000;
        Tcommon         1000;
        highCpCoeffs    ( 3.106 0.00179682 -5.94382e-07 9.04998e-11 -5.08033e-15 -11003.7 5.11872 );
        lowCpCoeffs     ( 3.49612 0.000650364 -2.08029e-07 1.2291e-09 -7.73697e-13 -11080.3 3.18978 );
    }
    transport
    {
        As              1.67212e-06;
        Ts              170.672;
    }
}


// ************************************************************************* //
