/*--------------------------------*- C++ -*----------------------------------*\
  =========                 |
  \\      /  F ield         | OpenFOAM: The Open Source CFD Toolbox
   \\    /   O peration     | Website:  https://openfoam.org
    \\  /    A nd           | Version:  dev
     \\/     M anipulation  |
\*---------------------------------------------------------------------------*/
FoamFile
{
    format      ascii;
    class       dictionary;
    object      topoSetDict;
}

// * * * * * * * * * * * * * * * * * * * * * * * * * * * * * * * * * * * * * //

actions
(
    {
        name    f0;
        type    faceSet;
        action  new;
        source  patchToFace;
        patch   "side1";
    }
    {
        name    f0;
        type    faceSet;
        action  subset;
        source  boxToFace;
        box (0 -100 -100)(100 -0.2 100);
    }
    {
        name    c0;
        type    cellSet;
        action  new;
        source  faceToCell;
        set     f0;
        option  any;
    }


    {
        name    walls;
        type    faceSet;
        action  new;
        source  patchToFace;
        patch   "walls";
    }
    {
        name    c0;
        type    cellSet;
        action  delete;
        source  faceToCell;
        set     walls;
        option  any;
    }
);

// ************************************************************************* //
