/*--------------------------------*- C++ -*----------------------------------*\
  =========                 |
  \\      /  F ield         | OpenFOAM: The Open Source CFD Toolbox
   \\    /   O peration     | Website:  https://openfoam.org
    \\  /    A nd           | Version:  dev
     \\/     M anipulation  |
\*---------------------------------------------------------------------------*/
FoamFile
{
    format      ascii;
    class       dictionary;
    location    "constant";
    object      chemistryProperties;
}

cpuLoad         on;

initialChemicalTimeStep 1e-07;

ode
{
    solver          seulex;
    absTol          1e-8;
    relTol          0.1;
}

#include "reactionsGRI"

// ************************************************************************* //
