/*--------------------------------*- C++ -*----------------------------------*\
  =========                 |
  \\      /  F ield         | OpenFOAM: The Open Source CFD Toolbox
   \\    /   O peration     | Website:  https://openfoam.org
    \\  /    A nd           | Version:  dev
     \\/     M anipulation  |
\*---------------------------------------------------------------------------*/
FoamFile
{
    format      ascii;
    class       volScalarField;
    location    "0";
    object      CO2;
}
// * * * * * * * * * * * * * * * * * * * * * * * * * * * * * * * * * * * * * //

dimensions      [0 0 0 0 0 0 0];

internalField   uniform 0;

boundaryField
{
    wallTube
    {
        type            zeroGradient;
    }

    outlet
    {
        type            zeroGradient;
    }

    inletPilot
    {
        type            fixedValue;
        value           uniform 0.1098;
    }

    inletAir
    {
        type            fixedValue;
        value           uniform 0;
    }

    wallOutside
    {
        type            zeroGradient;
    }

    inletCH4
    {
        type            fixedValue;
        value           uniform 0;
    }

    frontAndBack_pos
    {
        type            wedge;
    }

    frontAndBack_neg
    {
        type            wedge;
    }
}


// ************************************************************************* //
