/*--------------------------------*- C++ -*----------------------------------*\
| =========                 |                                                 |
| \\      /  F ield         | OpenFOAM: The Open Source CFD Toolbox           |
|  \\    /   O peration     | Version:  dev                                   |
|   \\  /    A nd           | Website:  https://openfoam.org                  |
|    \\/     M anipulation  |                                                 |
\*---------------------------------------------------------------------------*/
FoamFile
{
    version     2.0;
    format      ascii;
    class       volScalarField;
    location    "5";
    object      p_rgh;
}
// * * * * * * * * * * * * * * * * * * * * * * * * * * * * * * * * * * * * * //

dimensions      [1 -1 -2 0 0 0 0];

internalField   uniform 100000;

boundaryField
{
    inlet
    {
        type            fixedFluxPressure;
    }
    outlet
    {
        type            prghPressure;
        p               uniform 100000;
        value           uniform 100000;
    }
    wall1
    {
        type            fixedFluxPressure;
    }
    wall2
    {
        type            fixedFluxPressure;
    }
    defaultFaces
    {
        type            empty;
    }
}


// ************************************************************************* //
