/*--------------------------------*- C++ -*----------------------------------*\
  =========                 |
  \\      /  F ield         | OpenFOAM: The Open Source CFD Toolbox
   \\    /   O peration     | Website:  https://openfoam.org
    \\  /    A nd           | Version:  dev
     \\/     M anipulation  |
\*---------------------------------------------------------------------------*/
FoamFile
{
    format      ascii;
    class       volScalarField;
    location    "0";
    object      k;
}
// * * * * * * * * * * * * * * * * * * * * * * * * * * * * * * * * * * * * * //

dimensions      [turbulentKineticEnergy];

internalField   uniform 3.75e-3;

boundaryField
{
    #includeEtc "caseDicts/setConstraintTypes"

    rotor
    {
        type            kqRWallFunction;
        value           uniform 3.75e-3;
    }

    freestream
    {
        type            inletOutlet;
        inletValue      uniform 3.75e-3;
    }
}


// ************************************************************************* //
