/*--------------------------------*- C++ -*----------------------------------*\
  =========                 |
  \\      /  F ield         | OpenFOAM: The Open Source CFD Toolbox
   \\    /   O peration     | Website:  https://openfoam.org
    \\  /    A nd           | Version:  dev
     \\/     M anipulation  |
\*---------------------------------------------------------------------------*/
FoamFile
{
    version     2.0;
    format      ascii;
    class       dictionary;
    object      topoSetDict;
}

// * * * * * * * * * * * * * * * * * * * * * * * * * * * * * * * * * * * * * //

actions
(
    // porousBlockage
    {
        name    porousBlockageCellSet;
        type    cellSet;
        action  new;
        source  boxToCell;
        sourceInfo
        {
            box (-0.5 -0.5 -1) (0.5 0.5 1);
        }
    }
    {
        name    porousBlockage;
        type    cellZoneSet;
        action  new;
        source  setToCellZone;
        sourceInfo
        {
            set porousBlockageCellSet;
        }
    }
);

// ************************************************************************* //
