/*--------------------------------*- C++ -*----------------------------------*\
| =========                 |                                                 |
| \\      /  F ield         | OpenFOAM: The Open Source CFD Toolbox           |
|  \\    /   O peration     | Version:  dev                                   |
|   \\  /    A nd           | Web:      www.OpenFOAM.org                      |
|    \\/     M anipulation  |                                                 |
\*---------------------------------------------------------------------------*/
FoamFile
{
    version     2.0;
    format      binary;
    class       volVectorField;
    location    "0";
    object      U;
}
// * * * * * * * * * * * * * * * * * * * * * * * * * * * * * * * * * * * * * //

dimensions      [0 1 -1 0 0 0 0];

internalField   uniform (0 0 0);

boundaryField
{
    outerCylinder
    {
        type            noSlip;
    }
    propellerTip
    {
        type            movingWallVelocity;
        value           uniform (0 0 0);
    }
    propellerStem1
    {
        type            movingWallVelocity;
        value           uniform (0 0 0);
    }
    propellerStem2
    {
        type            movingWallVelocity;
        value           uniform (0 0 0);
    }
    propellerStem3
    {
        type            movingWallVelocity;
        value           uniform (0 0 0);
    }
    AMI1
    {
        type            cyclicAMI;
        value           uniform (0 0 0);
    }
    AMI2
    {
        type            cyclicAMI;
        value           uniform (0 0 0);
    }
    inlet
    {
        type            uniformFixedValue;
        uniformValue    table

3
(
(0 (0 0 0))
(0.01 (0 -15 0))
(100 (0 -15 0))
)
;
        value           uniform (0 0 0);
    }
    outlet
    {
        type            pressureInletOutletVelocity;
        value           uniform (0 0 0);
    }
}


// ************************************************************************* //
