ELEMENTS
C H N O AR HE
END
SPECIES
H              H2             O              O2             OH
H2O            N2             HO2            H2O2           AR
CO             CO2            CH2O           HCO            HO2CHO
O2CHO          HOCHO          OCHO           HOCH2O2H       HOCH2O2
OCH2O2H        HOCH2O         CH3OH          CH2OH          CH3O
CH3O2H         CH3O2          CH4            CH3            CH2
CH2(S)         C              CH             C2H6           C2H5
C2H4           C2H3           C2H2           C2H            CH3CHO
CH3CO          CH2CHO         CH2CO          HCCO           HCCOH
CH3CO3H        CH3CO3         CH3CO2         C2H5OH         C2H5O
PC2H4OH        SC2H4OH        O2C2H4OH       C2H5O2H        C2H5O2
C2H4O2H        C2H4O1-2       C2H3O1-2       CH3COCH3       CH3COCH2
CH3COCH2O2     CH3COCH2O2H    CH3COCH2O      C2H3CHO        C2H3CO
C2H5CHO        C2H5CO         CH3OCH3        CH3OCH2        CH3OCH2O2
CH2OCH2O2H     CH3OCH2O2H     CH3OCH2O       O2CH2OCH2O2H   HO2CH2OCHO
OCH2OCHO       HOCH2OCO       CH3OCHO        CH3OCO         CH2OCHO
HE             C3H8           IC3H7          NC3H7          C3H6
C3H5-A         C3H5-S         C3H5-T         C3H4-P         C3H4-A
C3H3           C3H2           C3H5O          C3H6OOH1-2     C3H6OOH1-3
C3H6OOH2-1     C3H6OOH1-2O2   C3H6OOH1-3O2   C3H6OOH2-1O2   C3H6OOH2-2
NC3H7O2H       IC3H7O2H       NC3H7O2        IC3H7O2        NC3H7O
IC3H7O         C3H6O1-2       C3H6O1-3       C3KET12        C3KET13
C3KET21        C3H51-2q3OOH   C3H52-1q3OOH   C3H6OH         HOC3H6O2
CH3CHCO        AC3H5OOH       C2H3OOH        C4H10          C4H8-1
C4H8-2         PC4H9          SC4H9          C4H71-1        C4H71-2
C4H71-3        C4H71-4        C4H72-2        C4H6           PC4H9O2H
SC4H9O2H       PC4H9O2        SC4H9O2        PC4H9O         SC4H9O
C4H7O          C4H8O1-2       C4H8O1-3       C4H8O1-4       C4H8O2-3
PC4H8OH        SC4H8OH        C4H8OH-1O2     C4H8OH-2O2     C4H8OOH1-1
C4H8OOH1-2     C4H8OOH1-3     C4H8OOH1-4     C4H8OOH2-1     C4H8OOH2-2
C4H8OOH2-3     C4H8OOH2-4     C4H8OOH1-2O2   C4H8OOH1-3O2   C4H8OOH1-4O2
C4H8OOH2-1O2   C4H8OOH2-3O2   C4H8OOH2-4O2   NC4KET12       NC4KET13
NC4KET14       NC4KET21       NC4KET23       NC4KET24       C2H5COCH3
C2H5COCH2      CH2CH2COCH3    CH3CHCOCH3     C2H3COCH3      CH3CHOOCOCH3
CH2CHOOHCOCH3  NC3H7CHO       NC3H7CO        C3H6CHO-1      C3H6CHO-2
C3H6CHO-3      C2H5CHCO       SC3H5CHO       SC3H5CO        CH2CH2CHO
IC4H10         IC4H9          TC4H9          IC4H8          IC4H7
TC4H9O2        IC4H9O2        TC4H8O2H-I     IC4H8O2H-I     IC4H8O2H-T
IC4H8O         CC4H8O         IC4H9O         TC4H9O         IC4H9O2H
TC4H9O2H       IC4H7O         IC4H8OH        IO2C4H8OH      IC3H7CHO
TC3H6CHO       IC3H7CO        IC3H6CHO       TC4H8OOH-IO2   IC4H8OOH-IO2
IC4H8OOH-TO2   IC4KETII       IC4KETIT       IC4H7OH        IC4H6OH
IC3H5CHO       IC3H5CO        TC3H6OCHO      IC3H6CO        IC4H7OOH
TC3H6OHCHO     TC3H6OH        IC3H5OH        TC3H6O2CHO     TC3H6O2HCO
IC3H5O2HCHO    CH2CCH2OH      TC4H8CHO       O2C4H8CHO      O2HC4H8CO
C3H5OH         TIC4H7Q2-I     IIC4H7Q2-T     IIC4H7Q2-I
IC5H12         AC5H11         BC5H11         CC5H11         DC5H11
AC5H10         BC5H10         CC5H10         AC5H9-A2       AC5H9-C
AC5H9-D        CC5H9-A        CC5H9-B        AC5H9O-A2      AC5H9O-C
CC5H9O-B       AC5H11O2H      BC5H11O2H      CC5H11O2H      DC5H11O2H
AC5H11O2       BC5H11O2       CC5H11O2       DC5H11O2       AC5H11O
BC5H11O        CC5H11O        DC5H11O        AC5H10OOH-A    AC5H10OOH-B
AC5H10OOH-C    AC5H10OOH-D    BC5H10OOH-A    BC5H10OOH-C    BC5H10OOH-D
CC5H10OOH-A    CC5H10OOH-B    CC5H10OOH-D    DC5H10OOH-A    DC5H10OOH-B
DC5H10OOH-C    A-AC5H10O      A-BC5H10O      A-CC5H10O      A-DC5H10O
B-CC5H10O      B-DC5H10O      C-DC5H10O      AC5H10OOH-AO2  AC5H10OOH-BO2
AC5H10OOH-CO2  AC5H10OOH-DO2  BC5H10OOH-AO2  BC5H10OOH-CO2  BC5H10OOH-DO2
CC5H10OOH-AO2  CC5H10OOH-BO2  CC5H10OOH-DO2  DC5H10OOH-AO2  DC5H10OOH-BO2
DC5H10OOH-CO2  IC5KETAA       IC5KETAB       IC5KETAC       IC5KETAD
IC5KETCA       IC5KETCB       IC5KETCD       IC5KETDA       IC5KETDB
IC5KETDC       AC5H10OH       BC5H10OH       CC5H10OH       AO2C5H10OH
BO2C5H10OH     CO2C5H10OH     CH3CHCHO       IC3H5COCH3     IC3H5COCH2
AC3H4COCH3
IC6H14         AC6H13         BC6H13
CC6H13         DC6H13         EC6H13         AC6H12         BC6H12
CC6H12         DC6H12         AC6H11-A2      AC6H11-C       AC6H11-D
AC6H11-E       BC6H11-E       CC6H11-A       CC6H11-B       DC6H11-A
DC6H11-B       DC6H11-C       AC6H11O-C      CC6H11O-B      DC6H11O-C
AC6H13O2       BC6H13O2       CC6H13O2       DC6H13O2       EC6H13O2
AC6H13O2H      BC6H13O2H      CC6H13O2H      DC6H13O2H      EC6H13O2H
AC6H13O        BC6H13O        CC6H13O        DC6H13O        EC6H13O
AC6H12OOH-A    AC6H12OOH-B    AC6H12OOH-C    AC6H12OOH-D    AC6H12OOH-E
BC6H12OOH-A    BC6H12OOH-C    BC6H12OOH-D    BC6H12OOH-E    CC6H12OOH-A
CC6H12OOH-B    CC6H12OOH-D    CC6H12OOH-E    DC6H12OOH-A    DC6H12OOH-B
DC6H12OOH-C    DC6H12OOH-E    EC6H12OOH-A    EC6H12OOH-B    EC6H12OOH-C
EC6H12OOH-D    A-AC6H12O      A-BC6H12O      A-CC6H12O      A-DC6H12O
A-EC6H12O      B-CC6H12O      B-DC6H12O      B-EC6H12O      C-DC6H12O
C-EC6H12O      D-EC6H12O      AC6H12OOH-AO2  AC6H12OOH-BO2  AC6H12OOH-CO2
AC6H12OOH-DO2  AC6H12OOH-EO2  BC6H12OOH-AO2  BC6H12OOH-CO2  BC6H12OOH-DO2
BC6H12OOH-EO2  CC6H12OOH-AO2  CC6H12OOH-BO2  CC6H12OOH-DO2  CC6H12OOH-EO2
DC6H12OOH-AO2  DC6H12OOH-BO2  DC6H12OOH-CO2  DC6H12OOH-EO2  EC6H12OOH-AO2
EC6H12OOH-BO2  EC6H12OOH-CO2  EC6H12OOH-DO2  IC6KETAA       IC6KETAB
IC6KETAC       IC6KETAD       IC6KETAE       IC6KETCA       IC6KETCB
IC6KETCD       IC6KETCE       IC6KETDA       IC6KETDB       IC6KETDC
IC6KETDE       IC6KETEA       IC6KETEB       IC6KETEC       IC6KETED
AC6H12OH       BC6H12OH       CC6H12OH       DC6H12OH       AO2C6H12OH
BO2C6H12OH     CO2C6H12OH     DO2C6H12OH     NC4H9CHO-2     NC4H9CO-2
C4H8CHO1-2     C4H8CHO2-2     C4H8CHO3-2     C4H8CHO4-2     IC4H9CHO
IC4H9CO        IC3H6CH2CHO    TC3H6CH2CHO    IC3H7CHCHO     IC5H11CHO
IC5H11CO       AC5H10CHO      BC5H10CHO      CC5H10CHO      DC5H10CHO
C4H7CHO1-4     C4H7CO1-4      C4H6CHO1-43    C4H6CHO1-44    C4H7CHO2-1
C4H7CO2-1      C4H6CHO2-11    NC5H11CHO-2    NC5H11CO-2     C5H10CHO1-2
C5H10CHO2-2    C5H10CHO3-2    C5H10CHO4-2    C5H10CHO5-2    IC4H9COCH3
IC4H9COCH2     IC3H6CH2COCH3  IC3H7CHCOCH3   TC3H6CH2COCH3  NC3H7COCH3
NC3H7COCH2     C3H6COCH3-1    C3H6COCH3-2    C3H6COCH3-3    AC3H5CHO
AC3H5CO        C2H3CHCHO      C5H10-1        C5H10-2        C5H91-3
C5H91-4        C5H91-5        C5H92-4        C5H92-5        C5H9O1-3
C5H9O2-4       C5H11-2        NC4H9CHO       NC4H9CO        C4H8CHO-1
C4H8CHO-2      C4H8CHO-3      C4H8CHO-4      IC3H7COC2H5    IC3H6COC2H5
TC3H6COC2H5    IC3H7COC2H4P   IC3H7COC2H4S   IC3H5COC2H5    AC3H4COC2H5
IC3H5COC2H4P   IC3H5COC2H4S   IC3H7COCH3     IC3H7COCH2     IC3H6COCH3
TC3H6COCH3     C2H5COC2H5     C2H5COC2H4P    C2H5COC2H4S    C2H5COC2H3
PC2H4COC2H3    SC2H4COC2H3    C5H91-2        IC5H8          IC5H7
IC5H7O         C4H5           IC4H7-I1       C5H81-3        C7H16-24
XC7H15         YC7H15         ZC7H15         XC7H14         YC7H14
XC7H13-X1      XC7H13-Z       XC7H13-X2      XC7H13-Y2      YC7H13-Y2
YC7H13-X2      XC7H13O-Z      YC7H13O-Y2     XC7H15O2       YC7H15O2
ZC7H15O2       XC7H15O2H      YC7H15O2H      ZC7H15O2H      XC7H15O
YC7H15O        ZC7H15O        XC7H14OOH-X1   XC7H14OOH-Y1   XC7H14OOH-Z
XC7H14OOH-Y2   XC7H14OOH-X2   YC7H14OOH-X1   YC7H14OOH-Z    YC7H14OOH-Y2
YC7H14OOH-X2   ZC7H14OOH-X    ZC7H14OOH-Y    XC7H14OOH-X1O2 XC7H14OOH-X2O2
XC7H14OOH-Y1O2 XC7H14OOH-Y2O2 XC7H14OOH-ZO2  YC7H14OOH-X1O2 YC7H14OOH-X2O2
YC7H14OOH-Y2O2 YC7H14OOH-ZO2  ZC7H14OOH-XO2  ZC7H14OOH-YO2  X-X1C7H14O
X-X2C7H14O     X-Y1C7H14O     X-Y2C7H14O     X-ZC7H14O      Y-YC7H14O
Y-ZC7H14O      C7KET24XX1     C7KET24XY1     C7KET24XZ      C7KET24XY2
C7KET24XX2     C7KET24ZX      C7KET24ZY      XC7H14OH       YC7H14OH
XO2C7H14OH     YO2C7H14OH     ACC6H10        ACC6H9-A       ACC6H9-D
NEOC5H12       NEOC5H11       NEOC5H11O2H    NEOC5H11O2     NEOC5H11O
NEOC5H10OOH    NEO-C5H10O     NEOC5H10OOH-O2 NEOC5H9Q2      NEOC5H9Q2-N
NEOC5KET       NEOC5KETOX     NEOC5KEJOL     IC4H6Q2-II     CH2O2H
NEOC6H14       FC6H13         GC6H13         HC6H13         NEOC6H12
NEOC6H11       FC6H13O2       GC6H13O2       HC6H13O2       FC6H13O2H
GC6H13O2H      HC6H13O2H      FC6H13O        GC6H13O        HC6H13O
FC6H12OOH-F    FC6H12OOH-G    FC6H12OOH-H    GC6H12OOH-F    GC6H12OOH-H
HC6H12OOH-F    HC6H12OOH-G    FC6H12OOH-FO2  FC6H12OOH-GO2  FC6H12OOH-HO2
GC6H12OOH-FO2  GC6H12OOH-HO2  HC6H12OOH-FO2  HC6H12OOH-GO2  F-FC6H12O
F-GC6H12O      F-HC6H12O      G-HC6H12O      NEOC6KETFF     NEOC6KETFG
NEOC6KETFH     NEOC6KETGF     NEOC6KETGH     NEOC6KETHF     NEOC6KETHG
NEOC6H12OH     NEOO2C6H12OH   TC4H9CHO       TC4H9CO        NEOC5H11CHO
NEOC5H11CO     TC4H9CHCHO     TC4H8CH2CHO    IC4H7CHO       IC4H7CO
AC3H4CH2CHO    IC3H5CHCHO     IC5H11CHO-B    IC5H11CO-B     IC5H10CHO-BA
IC5H10CHO-BC   IC5H10CHO-BD   C4H7CHO1-2     C4H7CO1-2      C4H6CHO1-23
C4H6CHO1-24    C4H7CHO2-2     C4H7CO2-2      C4H6CHO2-21    C4H6CHO2-24
CH2CCHCH3      TC4H9COCH3     TC4H9COCH2     TC4H8COCH3     CH2CCHO
IC3H6CHCHO     IC3H6CHCO      AC3H5CHCHO     AC5H9-A1       CH3CHOCHO
NEOC7H16       NC7H15         OC7H15         PC7H15         QC7H15
OC7H14         PC7H14         OC7H13-N       PC7H13-N       PC7H13-O
PC7H13O-O      NC7H15O2       OC7H15O2       PC7H15O2       QC7H15O2
NC7H15O2H      OC7H15O2H      PC7H15O2H      QC7H15O2H      NC7H15O
OC7H15O        PC7H15O        QC7H15O        NC7H14OOH-N2   NC7H14OOH-Q
QC7H14OOH-N    NC7H14OOH-O    NC7H14OOH-P    QC7H14OOH-O    QC7H14OOH-P
OC7H14OOH-N    OC7H14OOH-Q    PC7H14OOH-N    PC7H14OOH-Q    OC7H14OOH-P
PC7H14OOH-O    NC7H14OOH-N2O2 NC7H14OOH-QO2  QC7H14OOH-NO2  NC7H14OOH-OO2
NC7H14OOH-PO2  QC7H14OOH-OO2  QC7H14OOH-PO2  OC7H14OOH-NO2  OC7H14OOH-QO2
PC7H14OOH-NO2  PC7H14OOH-QO2  OC7H14OOH-PO2  PC7H14OOH-OO2  N-NC7H14O
N-OC7H14O      N-PC7H14O      N-QC7H14O      O-PC7H14O      O-QC7H14O
P-QC7H14O      NEOC7KETNN     NEOC7KETNO     NEOC7KETNP     NEOC7KETNQ
NEOC7KETON     NEOC7KETOP     NEOC7KETOQ     NEOC7KETPN     NEOC7KETPO
NEOC7KETPQ     NEOC7KETQN     NEOC7KETQO     NEOC7KETQP     OC7H14OH
PC7H14OH       OO2C7H14OH     PO2C7H14OH     IC8H18         AC8H17
BC8H17         CC8H17         DC8H17         IC8H16         JC8H16
IC8H14         IC8H15         AC8H17O2       BC8H17O2       CC8H17O2
DC8H17O2       AC8H17O2H      BC8H17O2H      CC8H17O2H      DC8H17O2H
AC8H17O        BC8H17O        CC8H17O        DC8H17O        AC8H16OOH-A
AC8H16OOH-B    AC8H16OOH-C    AC8H16OOH-D    BC8H16OOH-C    BC8H16OOH-A
BC8H16OOH-D    CC8H16OOH-D    CC8H16OOH-B    CC8H16OOH-A    DC8H16OOH-C
DC8H16OOH-D    DC8H16OOH-B    DC8H16OOH-A    IC8ETERAA      IC8ETERAB
IC8ETERAC      IC8ETERAD      IC8ETERBC      IC8ETERBD      IC8ETERCD
IC8ETERDD      AC8H16OOH-AO2  AC8H16OOH-BO2  AC8H16OOH-CO2  AC8H16OOH-DO2
BC8H16OOH-CO2  BC8H16OOH-AO2  BC8H16OOH-DO2  CC8H16OOH-DO2  CC8H16OOH-BO2
CC8H16OOH-AO2  DC8H16OOH-CO2  DC8H16OOH-DO2  DC8H16OOH-BO2  DC8H16OOH-AO2
IC8KETAA       IC8KETAB       IC8KETAC       IC8KETAD       IC8KETBA
IC8KETBC       IC8KETBD       IC8KETDA       IC8KETDB       IC8KETDC
IC8KETDD       CC8H16OH-B     BC8H16OH-C     CC8H16OH-BO2   CC8H16O-BO2H
CC8H16OH-D     DC8H16OH-C     BC8H16OH-CO2   BC8H16O-CO2H   CC8H16OH-DO2
CC8H16O-DO2H   DC8H16OH-CO2   DC8H16O-CO2H   IC6H13CHO-B    IC6H13CO-B
AC6H12CHO-B    CC6H12CHO-B    DC6H12CHO-B    EC6H12CHO-B    IC6H13CHO-D
IC6H13CO-D     AC6H12CHO-D    BC6H12CHO-D    CC6H12CHO-D    DC6H12CHO-D
EC6H12CHO-D    IC3H7COC3H7-I  IC3H7COC3H6-I  IC3H7COC3H6-T  TC4H9COC2H5
TC4H8COC2H5    TC4H9COC2H4S   TC4H9COC2H4P   NEOC5H11COCH3  NEOC5H10COCH3
TC4H9CHCOCH3   NEOC5H11COCH2  NEOC6H13CHO    NEOC6H13CO     FC6H12CHO
GC6H12CHO      HC6H12CHO      IC4H7COCH3     IC4H7COCH2     IC3H5CHCOCH3
AC3H4CH2COCH3  XC7H13OOH-X1   XC7H13O-X1     YC7H13OOH-X1   YC7H13O-X1
OC7H13OOH-N    OC7H13O-N      XC7H13OOH-Z    PC7H13OOH-O    OC7H13OOH-Q
OC7H13O-Q      NEOC6H11-H     XC7H13OOH-Y2   XC7H13O-Y2     YC7H13OOH-X2
YC7H13O-X2     CC6H11-D       DC6H11-D       IC3H6CHCOCH3   AC3H5CHCOCH3
IC3H6CHCOCH2
END
REACTIONS
H+O2<=>O+OH 3.547E+15 -0.406 1.660E+04
REV/ 1.027E+13 -0.015 -1.330E+02 /
O+H2<=>H+OH 5.080E+04 2.670 6.292E+03
REV/ 2.637E+04 2.651 4.880E+03 /
OH+H2<=>H+H2O 2.160E+08 1.510 3.430E+03
REV/ 2.290E+09 1.404 1.832E+04 /
O+H2O<=>OH+OH 2.970E+06 2.020 1.340E+04
REV/ 1.454E+05 2.107 -2.904E+03 /
H2+M<=>H+H+M 4.577E+19 -1.400 1.044E+05
REV/ 1.145E+20 -1.676 8.200E+02 /
H2/2.5/ H2O/12/ CO/1.9/ CO2/3.8/
O2+M<=>O+O+M 4.420E+17 -0.634 1.189E+05
REV/ 6.165E+15 -0.500 0.000E+00 /
H2/2.5/ H2O/12/ AR/.83/ CO/1.9/ CO2/3.8/ CH4/2/ C2H6/3/ HE/.83/
OH+M<=>O+H+M 9.780E+17 -0.743 1.021E+05
REV/ 4.714E+18 -1.000 0.000E+00 /
H2/2.5/ H2O/12/ AR/.75/ CO/1.5/ CO2/2/ CH4/2/ C2H6/3/ HE/.75/
H2O+M<=>H+OH+M 1.907E+23 -1.830 1.185E+05
REV/ 4.500E+22 -2.000 0.000E+00 /
H2/.73/ H2O/12/ AR/.38/ CH4/2/ C2H6/3/ HE/.38/
H+O2(+M)<=>HO2(+M) 1.475E+12 0.600 0.000E+00
!REV/ 3.091E+12 0.528 4.887E+04 /
LOW / 3.4820E+16 -4.1100E-01 -1.1150E+03 /
TROE / 5.0000E-01 1.0000E-30 1.0000E+30 1.0000E+10 / !Troe Fall-off reaction
H2/1.3/ H2O/14/ AR/.67/ CO/1.9/ CO2/3.8/ CH4/2/ C2H6/3/ HE/.67/
HO2+H<=>H2+O2 1.660E+13 0.000 8.230E+02
REV/ 3.166E+12 0.348 5.551E+04 /
HO2+H<=>OH+OH 7.079E+13 0.000 2.950E+02
REV/ 2.028E+10 0.720 3.684E+04 /
HO2+O<=>OH+O2 3.250E+13 0.000 0.000E+00
REV/ 3.217E+12 0.329 5.328E+04 /
HO2+OH<=>H2O+O2 1.973E+10 0.962 -3.284E+02
REV/ 3.989E+10 1.204 6.925E+04 /
H2O2+O2<=>HO2+HO2 1.136E+16 -0.347 4.973E+04
REV/ 1.030E+14 0.000 1.104E+04 /
DUP
H2O2+O2<=>HO2+HO2 2.141E+13 -0.347 3.728E+04
REV/ 1.940E+11 0.000 -1.409E+03 /
DUP
H2O2(+M)<=>OH+OH(+M) 2.951E+14 0.000 4.843E+04
!REV/ 3.656E+08 1.140 -2.584E+03 /
LOW / 1.2020E+17 0.0000E+00 4.5500E+04 /
TROE / 5.0000E-01 1.0000E-30 1.0000E+30 1.0000E+10 / !Troe Fall-off reaction
H2/2.5/ H2O/12/ AR/.64/ CO/1.9/ CO2/3.8/ CH4/2/ C2H6/3/ HE/.64/
H2O2+H<=>H2O+OH 2.410E+13 0.000 3.970E+03
REV/ 1.265E+08 1.310 7.141E+04 /
H2O2+H<=>H2+HO2 2.150E+10 1.000 6.000E+03
REV/ 3.716E+07 1.695 2.200E+04 /
H2O2+O<=>OH+HO2 9.550E+06 2.000 3.970E+03
REV/ 8.568E+03 2.676 1.856E+04 /
H2O2+OH<=>H2O+HO2 2.000E+12 0.000 4.272E+02
REV/ 3.665E+10 0.589 3.132E+04 /
DUP
H2O2+OH<=>H2O+HO2 1.700E+18 0.000 2.941E+04
REV/ 3.115E+16 0.589 6.030E+04 /
DUP
CO+O(+M)<=>CO2(+M) 1.800E+10 0.000 2.384E+03
!REV/ 9.874E+15 -0.934 1.300E+05 /
LOW / 1.3500E+24 -2.7880E+00 4.1910E+03 / !Lindemann Fall-off reaction
H2/2/ O2/6/ H2O/6/ AR/.5/ CO/1.5/ CO2/3.5/ CH4/2/ C2H6/3/ HE/.5/
CO+O2<=>CO2+O 1.050E+12 0.000 4.254E+04
REV/ 8.035E+15 -0.800 5.123E+04 /
CO+OH<=>CO2+H 2.230E+05 1.890 -1.158E+03
REV/ 5.896E+11 0.699 2.426E+04 /
CO+HO2<=>CO2+OH 3.010E+13 0.000 2.300E+04
REV/ 2.280E+16 -0.470 8.497E+04 /
HCO+M<=>H+CO+M 4.750E+11 0.660 1.487E+04
REV/ 3.582E+10 1.041 -4.573E+02 /
H2/2/ H2O/12/ CO/1.5/ CO2/2/ CH4/2/ C2H6/3/
HCO+O2<=>CO+HO2 7.580E+12 0.000 4.100E+02
REV/ 1.198E+12 0.309 3.395E+04 /
HCO+H<=>CO+H2 7.340E+13 0.000 0.000E+00
REV/ 2.212E+12 0.656 8.823E+04 /
HCO+O<=>CO+OH 3.020E+13 0.000 0.000E+00
REV/ 4.725E+11 0.638 8.682E+04 /
HCO+O<=>CO2+H 3.000E+13 0.000 0.000E+00
REV/ 1.241E+18 -0.553 1.122E+05 /
HCO+OH<=>CO+H2O 1.020E+14 0.000 0.000E+00
REV/ 3.259E+13 0.551 1.031E+05 /
HCO+CH3<=>CH4+CO 2.650E+13 0.000 0.000E+00
REV/ 7.286E+14 0.211 8.977E+04 /
HCO+HO2<=>CH2O+O2 2.499E+14 -0.061 1.392E+04
REV/ 8.070E+15 0.000 5.342E+04 /
HCO+HO2<=>CO2+H+OH 3.000E+13 0.000 0.000E+00
REV/ 0.000E+00 0.000 0.000E+00 /
O2CHO<=>HCO+O2 9.959E+15 -1.126 4.100E+04
REV/ 1.200E+11 0.000 -1.100E+03 /
CH2O+O2CHO<=>HCO+HO2CHO 1.990E+12 0.000 1.166E+04
REV/ 3.908E+14 -0.909 1.181E+04 /
HO2CHO<=>OCHO+OH 5.010E+14 0.000 4.015E+04
REV/ 3.856E+08 1.532 -6.372E+03 /
OCHO+M<=>H+CO2+M 5.318E+14 -0.353 1.758E+04
REV/ 7.500E+13 0.000 2.900E+04 /
CH2O+CO<=>HCO+HCO 9.186E+13 0.370 7.304E+04
REV/ 1.800E+13 0.000 0.000E+00 /
HCO+HCO<=>H2+CO+CO 3.000E+12 0.000 0.000E+00
REV/ 0.000E+00 0.000 0.000E+00 /
HCO+H(+M)<=>CH2O(+M) 1.090E+12 0.480 -2.600E+02
!REV/ 7.377E+13 0.469 8.811E+04 /
LOW / 1.3500E+24 -2.5700E+00 1.4250E+03 /
TROE / 7.8240E-01 2.7100E+02 2.7550E+03 6.5700E+03 / !Troe Fall-off reaction
H2/2/ H2O/6/ AR/.7/ CO/1.5/ CO2/2/ CH4/2/ C2H6/3/ HE/.7/
CO+H2(+M)<=>CH2O(+M) 4.300E+07 1.500 7.960E+04
!REV/ 9.656E+10 0.833 7.974E+04 /
LOW / 5.0700E+27 -3.4200E+00 8.4348E+04 /
TROE / 9.3200E-01 1.9700E+02 1.5400E+03 1.0300E+04 / !Troe Fall-off reaction
H2/2/ H2O/6/ AR/.7/ CO/1.5/ CO2/2/ CH4/2/ C2H6/3/ HE/.7/
CH2O+OH<=>HCO+H2O 7.820E+07 1.630 -1.055E+03
REV/ 4.896E+06 1.811 2.903E+04 /
CH2O+H<=>HCO+H2 5.740E+07 1.900 2.740E+03
REV/ 3.390E+05 2.187 1.793E+04 /
CH2O+O<=>HCO+OH 6.260E+09 1.150 2.260E+03
REV/ 1.919E+07 1.418 1.604E+04 /
CH2O+CH3<=>HCO+CH4 3.830E+01 3.360 4.312E+03
REV/ 2.063E+02 3.201 2.104E+04 /
CH2O+HO2<=>HCO+H2O2 7.100E-03 4.517 6.580E+03
REV/ 2.426E-02 4.108 5.769E+03 /
HOCH2O<=>CH2O+OH 2.056E+21 -2.336 2.573E+04
REV/ 4.500E+15 -1.100 0.000E+00 /
HOCH2O<=>HOCHO+H 1.000E+14 0.000 1.490E+04
REV/ 1.123E+15 -0.295 1.150E+04 /
HOCHO<=>CO+H2O 2.450E+12 0.000 6.047E+04
REV/ 2.255E+03 2.093 5.289E+04 /
HOCHO<=>CO2+H2 2.950E+09 0.000 4.852E+04
REV/ 6.772E+05 1.008 5.147E+04 /
HOCHO<=>HCO+OH 3.471E+22 -1.542 1.107E+05
REV/ 1.000E+14 0.000 0.000E+00 /
HOCHO+O2<=>OCHO+HO2 4.101E+12 -0.308 5.988E+04
REV/ 3.500E+10 0.000 -3.275E+03 /
HOCHO+OH<=>H2O+CO2+H 2.620E+06 2.060 9.160E+02
REV/ 0.000E+00 0.000 0.000E+00 /
HOCHO+OH<=>H2O+CO+OH 1.850E+07 1.510 -9.620E+02
REV/ 0.000E+00 0.000 0.000E+00 /
HOCHO+H<=>H2+CO2+H 4.240E+06 2.100 4.868E+03
REV/ 0.000E+00 0.000 0.000E+00 /
HOCHO+H<=>H2+CO+OH 6.030E+13 -0.350 2.988E+03
REV/ 0.000E+00 0.000 0.000E+00 /
HOCHO+CH3<=>CH4+CO+OH 3.900E-07 5.800 2.200E+03
REV/ 0.000E+00 0.000 0.000E+00 /
HOCHO+HO2<=>OCHO+H2O2 2.549E+12 0.040 3.447E+04
REV/ 2.400E+12 0.000 1.000E+04 /
HOCHO+HO2<=>H2O2+CO+OH 1.000E+12 0.000 1.192E+04
REV/ 0.000E+00 0.000 0.000E+00 /
HOCHO+O<=>CO+OH+OH 1.770E+18 -1.900 2.975E+03
REV/ 0.000E+00 0.000 0.000E+00 /
HOCHO+HCO<=>CH2O+OCHO 8.584E+11 0.040 2.675E+04
REV/ 5.600E+12 0.000 1.360E+04 /
CH3O(+M)<=>CH2O+H(+M) 6.800E+13 0.000 2.617E+04
!REV/ 1.049E+12 0.388 3.878E+03 /
LOW / 1.8670E+25 -3.0000E+00 2.4307E+04 /
TROE / 9.0000E-01 2.5000E+03 1.3000E+03 1.0000E+99 / !Troe Fall-off reaction
H2/2/ H2O/6/ CO/1.5/ CO2/2/ CH4/2/ C2H6/3/
CH3O+O2<=>CH2O+HO2 4.380E-19 9.500 -5.501E+03
REV/ 1.416E-20 9.816 2.108E+04 /
CH2O+CH3O<=>CH3OH+HCO 6.620E+11 0.000 2.294E+03
REV/ 8.393E+10 0.074 1.771E+04 /
CH4+CH3O<=>CH3+CH3OH 6.119E+02 2.867 8.248E+03
REV/ 1.440E+01 3.100 6.935E+03 /
CH3O+CH3<=>CH2O+CH4 1.200E+13 0.000 0.000E+00
REV/ 6.749E+13 0.218 8.281E+04 /
CH3O+H<=>CH2O+H2 2.000E+13 0.000 0.000E+00
REV/ 1.233E+11 0.664 8.127E+04 /
CH3O+HO2<=>CH2O+H2O2 3.010E+11 0.000 0.000E+00
REV/ 1.074E+12 -0.031 6.527E+04 /
CH2O+H(+M)<=>CH2OH(+M) 5.400E+11 0.454 3.600E+03
!REV/ 8.653E+12 -0.038 3.241E+04 /
LOW / 1.2700E+32 -4.8200E+00 6.5300E+03 /
TROE / 7.1870E-01 1.0300E+02 1.2910E+03 4.1600E+03 / !Troe Fall-off reaction
H2/2/ H2O/6/ CO/1.5/ CO2/2/ CH4/2/ C2H6/3/
CH2OH+O2<=>CH2O+HO2 1.510E+15 -1.000 0.000E+00
REV/ 1.975E+14 -0.580 2.006E+04 /
DUP
CH2OH+O2<=>CH2O+HO2 2.410E+14 0.000 5.017E+03
REV/ 3.152E+13 0.420 2.508E+04 /
DUP
CH2OH+H<=>CH2O+H2 6.000E+12 0.000 0.000E+00
REV/ 1.497E+11 0.768 7.475E+04 /
CH2OH+HO2<=>CH2O+H2O2 1.200E+13 0.000 0.000E+00
REV/ 1.732E+14 0.073 5.875E+04 /
CH2OH+HCO<=>CH2O+CH2O 1.800E+14 0.000 0.000E+00
REV/ 7.602E+14 0.481 5.956E+04 /
CH2OH+CH3O<=>CH2O+CH3OH 2.400E+13 0.000 0.000E+00
REV/ 1.285E+13 0.555 7.498E+04 /
CH2OH+CH2O<=>CH3OH+HCO 1.878E+04 2.722 4.208E+03
REV/ 9.630E+03 2.900 1.311E+04 /
OH+CH2OH<=>H2O+CH2O 2.400E+13 0.000 0.000E+00
REV/ 6.347E+12 0.662 8.964E+04 /
O+CH2OH<=>OH+CH2O 4.200E+13 0.000 0.000E+00
REV/ 5.438E+11 0.749 7.334E+04 /
CH2O+CH3OH<=>CH2OH+CH2OH 6.498E+12 0.659 6.846E+04
REV/ 3.000E+12 0.000 0.000E+00 /
CH2OH+HO2<=>HOCH2O+OH 1.000E+13 0.000 0.000E+00
REV/ 8.169E+13 -0.024 3.347E+04 /
OCH2O2H<=>CH2O+HO2 1.278E+18 -1.800 1.046E+04
REV/ 1.500E+11 0.000 1.190E+04 /
OCH2O2H<=>HOCH2O2 3.000E+11 0.000 8.600E+03
REV/ 4.241E+08 0.950 2.620E+04 /
HOCH2O2+HO2<=>HOCH2O2H+O2 3.500E+10 0.000 -3.275E+03
REV/ 1.046E+14 -0.840 3.487E+04 /
HOCH2O2H<=>HOCH2O+OH 1.023E+21 -1.920 4.249E+04
REV/ 1.000E+13 0.000 0.000E+00 /
CH3OH(+M)<=>CH3+OH(+M) 1.900E+16 0.000 9.173E+04
!REV/ 1.025E+11 0.779 -7.520E+02 /
LOW / 2.9500E+44 -7.3500E+00 9.5460E+04 /
TROE / 4.1400E-01 2.7900E+02 5.4590E+03 1.0000E+10 / !Troe Fall-off reaction
CH3OH(+M)<=>CH2OH+H(+M) 2.690E+16 -0.080 9.894E+04
!REV/ 7.749E+14 -0.247 1.668E+03 /
LOW / 2.3400E+40 -6.3300E+00 1.0310E+05 /
TROE / 7.7300E-01 6.9300E+02 5.3330E+03 1.0000E+10 / !Troe Fall-off reaction
CH3OH+H<=>CH3O+H2 3.600E+12 0.000 6.095E+03
REV/ 1.677E+11 0.212 5.868E+03 /
CH3OH+H<=>CH2OH+H2 1.204E+06 2.400 2.583E+03
REV/ 1.386E+04 2.509 8.871E+03 /
CH3OH+O<=>CH2OH+OH 3.880E+05 2.500 3.080E+03
REV/ 2.319E+03 2.590 7.956E+03 /
CH3OH+OH<=>CH3O+H2O 5.130E+05 2.130 2.450E+03
REV/ 2.534E+05 2.237 1.712E+04 /
CH3OH+OH<=>CH2OH+H2O 1.440E+06 2.000 -8.390E+02
REV/ 1.758E+05 2.003 2.034E+04 /
CH3OH+O2<=>CH2OH+HO2 2.050E+13 0.000 4.490E+04
REV/ 1.238E+12 -0.239 -3.501E+03 /
CH3OH+HO2<=>CH2OH+H2O2 1.080E+04 2.550 1.053E+04
REV/ 7.195E+04 1.963 8.190E+02 /
CH3OH+CH3<=>CH2OH+CH4 3.190E+01 3.170 7.172E+03
REV/ 3.351E+02 2.833 1.500E+04 /
CH3O+CH3OH<=>CH2OH+CH3OH 3.000E+11 0.000 4.074E+03
REV/ 7.416E+10 -0.104 1.059E+04 /
CH3OH+CH2O<=>CH3O+CH3O 7.981E+12 0.452 8.149E+04
REV/ 6.030E+13 0.000 0.000E+00 /
CH3+H(+M)<=>CH4(+M) 1.270E+16 -0.600 3.830E+02
!REV/ 4.631E+18 -0.770 1.055E+05 /
LOW / 2.4770E+33 -4.7600E+00 2.4440E+03 /
TROE / 7.8300E-01 7.4000E+01 2.9400E+03 6.9600E+03 / !Troe Fall-off reaction
H2/2/ H2O/6/ AR/.7/ CO/1.5/ CO2/2/ CH4/2/ C2H6/3/ HE/.7/
CH4+H<=>CH3+H2 6.140E+05 2.500 9.587E+03
REV/ 6.730E+02 2.946 8.047E+03 /
CH4+OH<=>CH3+H2O 5.830E+04 2.600 2.190E+03
REV/ 6.776E+02 2.940 1.554E+04 /
CH4+O<=>CH3+OH 1.020E+09 1.500 8.600E+03
REV/ 5.804E+05 1.927 5.648E+03 /
CH4+HO2<=>CH3+H2O2 1.130E+01 3.740 2.101E+04
REV/ 7.166E+00 3.491 3.468E+03 /
CH4+CH2<=>CH3+CH3 2.460E+06 2.000 8.270E+03
REV/ 1.736E+06 1.868 1.298E+04 /
CH3+OH<=>CH2O+H2 8.000E+09 0.500 -1.755E+03
REV/ 1.066E+12 0.322 6.821E+04 /
CH3+OH<=>CH2(S)+H2O 4.508E+17 -1.340 1.417E+03
REV/ 1.654E+16 -0.855 1.039E+03 /
CH3+OH<=>CH3O+H 6.943E+07 1.343 1.120E+04
REV/ 1.500E+12 0.500 -1.100E+02 /
CH3+OH<=>CH2OH+H 3.090E+07 1.596 4.506E+03
REV/ 1.650E+11 0.650 -2.840E+02 /
CH3+OH<=>CH2+H2O 5.600E+07 1.600 5.420E+03
REV/ 9.224E+05 2.072 1.406E+04 /
CH3+HO2<=>CH3O+OH 1.000E+12 0.269 -6.875E+02
REV/ 6.190E+12 0.147 2.455E+04 /
CH3+HO2<=>CH4+O2 1.160E+05 2.230 -3.022E+03
REV/ 2.018E+07 2.132 5.321E+04 /
CH3+O<=>CH2O+H 5.540E+13 0.050 -1.360E+02
REV/ 3.830E+15 -0.147 6.841E+04 /
CH3+O2<=>CH3O+O 7.546E+12 0.000 2.832E+04
REV/ 4.718E+14 -0.451 2.880E+02 /
CH3+O2<=>CH2O+OH 2.641E+00 3.283 8.105E+03
REV/ 5.285E-01 3.477 5.992E+04 /
CH3+O2(+M)<=>CH3O2(+M) 7.812E+09 0.900 0.000E+00
!REV/ 5.655E+15 -0.313 3.333E+04 /
LOW / 6.8500E+24 -3.0000E+00 0.0000E+00 /
TROE / 6.0000E-01 1.0000E+03 7.0000E+01 1.7000E+03 / !Troe Fall-off reaction
CH3O2+CH2O<=>CH3O2H+HCO 1.990E+12 0.000 1.166E+04
REV/ 1.323E+14 -0.853 9.259E+03 /
CH4+CH3O2<=>CH3+CH3O2H 1.810E+11 0.000 1.848E+04
REV/ 2.233E+12 -0.694 -6.550E+02 /
CH3OH+CH3O2<=>CH2OH+CH3O2H 1.810E+12 0.000 1.371E+04
REV/ 2.346E+14 -1.031 2.404E+03 /
CH3O2+CH3<=>CH3O+CH3O 5.080E+12 0.000 -1.411E+03
REV/ 1.967E+12 0.176 2.807E+04 /
CH3O2+HO2<=>CH3O2H+O2 2.470E+11 0.000 -1.570E+03
REV/ 5.302E+14 -0.792 3.552E+04 /
CH3O2+CH3O2<=>CH2O+CH3OH+O2 3.110E+14 -1.610 -1.051E+03
REV/ 0.000E+00 0.000 0.000E+00 /
CH3O2+CH3O2<=>O2+CH3O+CH3O 1.400E+16 -1.610 1.860E+03
REV/ 0.000E+00 0.000 0.000E+00 /
CH3O2+H<=>CH3O+OH 9.600E+13 0.000 0.000E+00
REV/ 1.720E+09 1.019 4.078E+04 /
CH3O2+O<=>CH3O+O2 3.600E+13 0.000 0.000E+00
REV/ 2.229E+11 0.628 5.752E+04 /
CH3O2+OH<=>CH3OH+O2 6.000E+13 0.000 0.000E+00
REV/ 1.536E+13 0.434 5.916E+04 /
CH3O2H<=>CH3O+OH 6.310E+14 0.000 4.230E+04
REV/ 2.514E+06 1.883 -2.875E+03 /
CH2(S)<=>CH2 1.000E+13 0.000 0.000E+00
REV/ 4.488E+12 -0.013 9.020E+03 /
CH2(S)+CH4<=>CH3+CH3 1.600E+13 0.000 -5.700E+02
REV/ 5.067E+12 -0.145 1.316E+04 /
CH2(S)+O2<=>CO+OH+H 7.000E+13 0.000 0.000E+00
REV/ 0.000E+00 0.000 0.000E+00 /
CH2(S)+H2<=>CH3+H 7.000E+13 0.000 0.000E+00
REV/ 2.022E+16 -0.591 1.527E+04 /
CH2(S)+H<=>CH2+H 3.000E+13 0.000 0.000E+00
REV/ 1.346E+13 -0.013 9.020E+03 /
CH2(S)+H<=>CH+H2 3.000E+13 0.000 0.000E+00
REV/ 6.948E+13 -0.253 1.248E+04 /
CH2(S)+O<=>CO+H+H 3.000E+13 0.000 0.000E+00
REV/ 0.000E+00 0.000 0.000E+00 /
CH2(S)+OH<=>CH2O+H 3.000E+13 0.000 0.000E+00
REV/ 1.154E+18 -0.770 8.523E+04 /
CH2(S)+CO2<=>CH2O+CO 3.000E+12 0.000 0.000E+00
REV/ 4.366E+10 0.421 5.981E+04 /
CH2+H(+M)<=>CH3(+M) 2.500E+16 -0.800 0.000E+00
!REV/ 6.432E+18 -1.103 1.098E+05 /
LOW / 3.2000E+27 -3.1400E+00 1.2300E+03 /
TROE / 6.8000E-01 7.8000E+01 1.9950E+03 5.5900E+03 / !Troe Fall-off reaction
H2/2/ H2O/6/ AR/.7/ CO/1.5/ CO2/2/ CH4/2/ C2H6/3/ HE/.7/
CH2+O2<=>CH2O+O 2.400E+12 0.000 1.500E+03
REV/ 5.955E+14 -0.365 6.098E+04 /
CH2+O2<=>CO2+H+H 5.800E+12 0.000 1.500E+03
REV/ 0.000E+00 0.000 0.000E+00 /
CH2+O2<=>CO+OH+H 5.000E+12 0.000 1.500E+03
REV/ 0.000E+00 0.000 0.000E+00 /
CH2+O<=>CO+H+H 5.000E+13 0.000 0.000E+00
REV/ 0.000E+00 0.000 0.000E+00 /
CH2+H<=>CH+H2 1.000E+18 -1.560 0.000E+00
REV/ 5.160E+18 -1.800 3.460E+03 /
DUP
CH2+OH<=>CH+H2O 1.130E+07 2.000 3.000E+03
REV/ 6.183E+08 1.655 2.135E+04 /
CH+O2<=>HCO+O 3.300E+13 0.000 0.000E+00
REV/ 9.371E+12 0.161 7.121E+04 /
C+OH<=>CO+H 5.000E+13 0.000 0.000E+00
REV/ 1.356E+15 0.000 1.543E+05 /
C+O2<=>CO+O 5.000E+13 0.000 0.000E+00
REV/ 1.070E+14 0.000 1.382E+05 /
CH+H<=>C+H2 5.000E+13 0.000 0.000E+00
REV/ 2.043E+14 0.000 2.382E+04 /
CH+O<=>CO+H 5.700E+13 0.000 0.000E+00
REV/ 2.774E+15 0.000 1.760E+05 /
CH+OH<=>HCO+H 3.000E+13 0.000 0.000E+00
REV/ 5.069E+14 0.000 8.811E+04 /
CH2+H<=>CH+H2 2.700E+11 0.670 2.570E+04
REV/ 1.897E+11 0.670 2.873E+04 /
DUP
CH+H2O<=>H+CH2O 1.713E+13 0.000 -7.550E+02
REV/ 8.372E+14 0.000 5.752E+04 /
CH+CO2<=>HCO+CO 1.700E+12 0.000 6.850E+02
REV/ 2.565E+11 0.000 6.646E+04 /
CH3+CH3(+M)<=>C2H6(+M) 9.214E+16 -1.170 6.358E+02
!REV/ 1.904E+25 -2.604 9.168E+04 /
LOW / 1.1350E+36 -5.2460E+00 1.7050E+03 /
TROE / 4.0500E-01 1.1200E+03 6.9600E+01 1.0000E+10 / !Troe Fall-off reaction
H2/2/ H2O/6/ AR/.7/ CO/1.5/ CO2/2/ CH4/2/ C2H6/3/ HE/.7/
C2H5+H(+M)<=>C2H6(+M) 5.210E+17 -0.990 1.580E+03
!REV/ 2.254E+21 -1.396 1.029E+05 /
LOW / 1.9900E+41 -7.0800E+00 6.6850E+03 /
TROE / 8.4200E-01 1.2500E+02 2.2190E+03 6.8820E+03 / !Troe Fall-off reaction
H2/2/ H2O/6/ AR/.7/ CO/1.5/ CO2/2/ CH4/2/ C2H6/3/ HE/.7/
C2H6+H<=>C2H5+H2 1.150E+08 1.900 7.530E+03
REV/ 1.062E+04 2.582 9.760E+03 /
C2H6+O<=>C2H5+OH 3.550E+06 2.400 5.830E+03
REV/ 1.702E+02 3.063 6.648E+03 /
C2H6+OH<=>C2H5+H2O 1.480E+07 1.900 9.500E+02
REV/ 1.450E+04 2.476 1.807E+04 /
C2H6+O2<=>C2H5+HO2 6.030E+13 0.000 5.187E+04
REV/ 2.921E+10 0.334 -5.930E+02 /
C2H6+CH3<=>C2H5+CH4 1.510E-07 6.000 6.047E+03
REV/ 1.273E-08 6.236 9.817E+03 /
C2H6+HO2<=>C2H5+H2O2 3.460E+01 3.610 1.692E+04
REV/ 1.849E+00 3.597 3.151E+03 /
C2H6+CH3O2<=>C2H5+CH3O2H 1.940E+01 3.640 1.710E+04
REV/ 2.017E+01 3.182 1.734E+03 /
C2H6+CH3O<=>C2H5+CH3OH 2.410E+11 0.000 7.090E+03
REV/ 4.779E+08 0.469 9.547E+03 /
C2H6+CH<=>C2H5+CH2 1.100E+14 0.000 -2.600E+02
REV/ 1.969E+09 0.921 -1.490E+03 /
CH2(S)+C2H6<=>CH3+C2H5 1.200E+14 0.000 0.000E+00
REV/ 3.203E+12 0.091 1.750E+04 /
C2H4+H(+M)<=>C2H5(+M) 1.081E+12 0.454 1.822E+03
!REV/ 1.946E+12 0.334 3.731E+04 /
LOW / 1.2000E+42 -7.6200E+00 6.9700E+03 /
TROE / 9.7500E-01 2.1000E+02 9.8400E+02 4.3740E+03 / !Troe Fall-off reaction
H2/2/ H2O/6/ AR/.7/ CO/1.5/ CO2/2/ CH4/2/ C2H6/3/ HE/.7/
H2+CH3O2<=>H+CH3O2H 1.500E+14 0.000 2.603E+04
REV/ 1.688E+18 -1.140 8.434E+03 /
H2+C2H5O2<=>H+C2H5O2H 1.500E+14 0.000 2.603E+04
REV/ 1.691E+18 -1.140 8.438E+03 /
C2H5+C2H3<=>C2H4+C2H4 6.859E+11 0.110 -4.300E+03
REV/ 4.820E+14 0.000 7.153E+04 /
CH3+C2H5<=>CH4+C2H4 1.180E+04 2.450 -2.921E+03
REV/ 2.390E+06 2.400 6.669E+04 /
C2H5+H<=>CH3+CH3 9.690E+13 0.000 2.200E+02
REV/ 2.029E+09 1.028 1.051E+04 /
C2H5+H<=>C2H4+H2 2.000E+12 0.000 0.000E+00
REV/ 4.440E+11 0.396 6.807E+04 /
C2H5+O<=>CH3CHO+H 1.100E+14 0.000 0.000E+00
REV/ 1.033E+17 -0.500 7.742E+04 /
C2H5+HO2<=>C2H5O+OH 1.100E+13 0.000 0.000E+00
REV/ 9.680E+15 -0.723 2.765E+04 /
CH3O2+C2H5<=>CH3O+C2H5O 8.000E+12 0.000 -1.000E+03
REV/ 4.404E+14 -0.425 3.089E+04 /
C2H5O+O2<=>CH3CHO+HO2 4.280E+10 0.000 1.097E+03
REV/ 1.322E+08 0.615 3.413E+04 /
C2H5O<=>CH3+CH2O 1.321E+20 -2.018 2.075E+04
REV/ 3.000E+11 0.000 6.336E+03 /
C2H5O<=>CH3CHO+H 5.428E+15 -0.687 2.223E+04
REV/ 8.000E+12 0.000 6.400E+03 /
C2H5O2<=>C2H5+O2 1.312E+62 -14.784 4.918E+04
REV/ 2.876E+56 -13.820 1.462E+04 /
C2H5O2+CH2O<=>C2H5O2H+HCO 1.990E+12 0.000 1.166E+04
REV/ 1.325E+14 -0.853 9.263E+03 /
CH4+C2H5O2<=>CH3+C2H5O2H 1.810E+11 0.000 1.848E+04
REV/ 2.237E+12 -0.694 -6.510E+02 /
CH3OH+C2H5O2<=>CH2OH+C2H5O2H 1.810E+12 0.000 1.371E+04
REV/ 2.350E+14 -1.031 2.408E+03 /
C2H5O2+HO2<=>C2H5O2H+O2 1.750E+10 0.000 -3.275E+03
REV/ 3.763E+13 -0.792 3.382E+04 /
C2H6+C2H5O2<=>C2H5+C2H5O2H 8.600E+00 3.760 1.720E+04
REV/ 8.957E+00 3.302 1.838E+03 /
C2H5O2H<=>C2H5O+OH 6.310E+14 0.000 4.230E+04
REV/ 5.661E+08 1.033 -1.705E+03 /
C2H4O2H<=>C2H5+O2 4.374E+47 -12.115 3.102E+04
REV/ 1.814E+45 -11.500 1.460E+04 /
C2H5+O2<=>C2H4+HO2 7.561E+14 -1.010 4.749E+03
REV/ 8.802E+14 -0.962 1.813E+04 /
DUP
C2H5+O2<=>C2H4+HO2 4.000E-01 3.880 1.362E+04
REV/ 4.656E-01 3.928 2.700E+04 /
DUP
C2H5+O2<=>C2H4O1-2+OH 1.626E+11 -0.310 6.150E+03
REV/ 3.633E+13 -0.626 3.984E+04 /
C2H5+O2<=>CH3CHO+OH 8.265E+02 2.410 5.285E+03
REV/ 2.247E+03 2.301 6.597E+04 /
C2H5O2<=>C2H4O2H 2.276E+39 -8.479 4.517E+04
REV/ 1.203E+36 -8.130 2.702E+04 /
C2H5O2<=>CH3CHO+OH 2.520E+41 -10.200 4.371E+04
REV/ 1.502E+36 -9.345 6.984E+04 /
C2H5O2<=>C2H4+HO2 1.815E+38 -8.450 3.789E+04
REV/ 4.632E+32 -7.438 1.670E+04 /
C2H5O2<=>C2H4O1-2+OH 4.000E+43 -10.460 4.558E+04