/*--------------------------------*- C++ -*----------------------------------*\
| =========                 |                                                 |
| \\      /  F ield         | OpenFOAM: The Open Source CFD Toolbox           |
|  \\    /   O peration     | Version:  dev                                   |  
|   \\  /    A nd           | Web:      www.OpenFOAM.org                      |
|    \\/     M anipulation  |                                                 |
\*---------------------------------------------------------------------------*/
FoamFile
{
    version     2.0;
    format      ascii;
    class       dictionary;
    object      sampleDict;
}
// * * * * * * * * * * * * * * * * * * * * * * * * * * * * * * * * * * * * * //

#includeEtc "caseDicts/postProcessing/graphs/sampleDict.cfg"

sets
(
    graph
    {
        $:setConfig;
        start   (0   1e-6 0);
        end     (1   1e-6 0);
    }
);

fields          ( U p );

// ************************************************************************* //
