/*--------------------------------*- C++ -*----------------------------------*\
| =========                 |                                                 |
| \\      /  F ield         | OpenFOAM: The Open Source CFD Toolbox           |
|  \\    /   O peration     | Version:  dev                                   |  
|   \\  /    A nd           | Web:      www.OpenFOAM.org                      |
|    \\/     M anipulation  |                                                 |
\*---------------------------------------------------------------------------*/
FoamFile
{
    version     2.0;
    format      ascii;
    class       dictionary;
    object      graph;
}
// * * * * * * * * * * * * * * * * * * * * * * * * * * * * * * * * * * * * * //

graph
{
    start   (0 1e-06 0);
    end     (1 1e-06 0);
    fields  ( U p );

    #includeEtc "caseDicts/postProcessing/graphs/sampleDict.cfg"

    // Must be last entry
    #includeEtc "caseDicts/postProcessing/graphs/graph.cfg"
}

// ************************************************************************* //
