/*--------------------------------*- C++ -*----------------------------------*\
| =========                 |                                                 |
| \\      /  F ield         | OpenFOAM: The Open Source CFD Toolbox           |
|  \\    /   O peration     | Version:  dev                                   |
|   \\  /    A nd           | Website:  https://openfoam.org                  |
|    \\/     M anipulation  |                                                 |
\*---------------------------------------------------------------------------*/
FoamFile
{
    version     2.0;
    format      ascii;
    class       dictionary;
    object      blockMeshDict;
}
// * * * * * * * * * * * * * * * * * * * * * * * * * * * * * * * * * * * * * //

convertToMeters 1;

vertices
(
    (-0.15242 0       -0.0042)
    ( 0       0       -0.0042)
    ( 0.3048  0.081670913853  -0.0042)
    (-0.15242 0.3 -0.0042)
    ( 0       0.3 -0.0042)
    ( 0.3048  0.3 -0.0042)

    (-0.15242 0        0.0042)
    ( 0       0        0.0042)
    ( 0.3048  0.081670913853 0.0042)
    (-0.15242 0.3  0.0042)
    ( 0       0.3  0.0042)
    ( 0.3048  0.3  0.0042)

);

blocks
(
    hex (0 1 4 3 6 7 10 9 ) (20 40 1) simpleGrading (1 1 1)
    hex (1 2 5 4 7 8 11 10) (40 40 1) simpleGrading (1 1 1)
);

edges
(
);

boundary
(
    flow
    {
        type patch;
        faces
        (
            (0 6 9 3)
            (2 5 11 8)
            (0 1 7 6)
            (3 9 10 4)
            (4 10 11 5)
        );
    }
    obstacle
    {
        type wall;
        faces
        (
            (1 2 8 7)
        );
    }
    frontAndBack
    {
        type empty;
        faces
        (
            (0 3 4 1)
            (1 4 5 2)
            (6 7 10 9)
            (7 8 11 10)
        );
    }
);

mergePatchPairs
(
);

// ************************************************************************* //
