/*--------------------------------*- C++ -*----------------------------------*\
  =========                 |
  \\      /  F ield         | OpenFOAM: The Open Source CFD Toolbox
   \\    /   O peration     | Website:  https://openfoam.org
    \\  /    A nd           | Version:  dev
     \\/     M anipulation  |
\*---------------------------------------------------------------------------*/
FoamFile
{
    format      ascii;
    class       volScalarField;
    location    "0/cylinderHead";
    object      T;
}
// * * * * * * * * * * * * * * * * * * * * * * * * * * * * * * * * * * * * * //

dimensions      [0 0 0 1 0 0 0];

internalField   uniform 523.15;

boundaryField
{
    #includeEtc "caseDicts/setConstraintTypes"

    externalWalls
    {
        type            zeroGradient;
    }

   mappedWalls
    {
        type            coupledTemperature;
        value           uniform 297;
    }

    NCMWbase
    {
        type            zeroGradient;
    }

    "nonCouple.*"
    {
        type            zeroGradient;
    }

    ".*_on_.*"
    {
        type            coupledTemperature;
        value           uniform 297;
    }

    "NonConformalError.*"
    {
        type            nonConformalError;
    }

    frontAndBack
    {
        type            empty;
    }
}


// ************************************************************************* //
