/*--------------------------------*- C++ -*----------------------------------*\
  =========                 |
  \\      /  F ield         | OpenFOAM: The Open Source CFD Toolbox
   \\    /   O peration     | Website:  https://openfoam.org
    \\  /    A nd           | Version:  dev
     \\/     M anipulation  |
\*---------------------------------------------------------------------------*/
FoamFile
{
    format      ascii;
    class       dictionary;
    location    "system";
    object      fvSolution;
}
// * * * * * * * * * * * * * * * * * * * * * * * * * * * * * * * * * * * * * //

solvers
{
    p_rgh
    {
        solver           GAMG;
        tolerance        1e-7;
        relTol           0.01;

        smoother         DICGaussSeidel;

    }

    "(U|h|k|epsilon|omega)"
    {
        solver          PBiCGStab;
        preconditioner  DILU;
        tolerance       1e-7;
        relTol          0.01;
    }
}

PIMPLE
{
    momentumPredictor yes;
    nNonOrthogonalCorrectors 0;
    pRefCell        0;
    pRefValue       0;

    residualControl
    {
        U               1e-4;
        h               1e-4;

        // possibly check turbulence fields
        "(k|epsilon|omega)" 5e-3;
    }
}

relaxationFactors
{
    rho             1.0;
    p_rgh           0.7;
    U               0.3;
    h               0.7;
    "(k|epsilon|omega)" 0.3;
}


// ************************************************************************* //
