/*--------------------------------*- C++ -*----------------------------------*\
  =========                 |
  \\      /  F ield         | OpenFOAM: The Open Source CFD Toolbox
   \\    /   O peration     | Website:  https://openfoam.org
    \\  /    A nd           | Version:  dev
     \\/     M anipulation  |
\*---------------------------------------------------------------------------*/
FoamFile
{
    format      ascii;
    class       volScalarField;
    location    "0";
    object      sludge;
}
// * * * * * * * * * * * * * * * * * * * * * * * * * * * * * * * * * * * * * //

dimensions      [];

internalField
{
    type        zonal;

    defaultValue    0;

    zones
    {
        sludge
        {
            type            box;
            box             (0 0 0) (5 2 2);
            value           1;
        }
    }
}

boundaryField
{
    left
    {
        type            zeroGradient;
    }

    right
    {
        type            zeroGradient;
    }

    bottom
    {
        type            zeroGradient;
    }

    top
    {
        type            zeroGradient;
    }

    frontBack
    {
        type            empty;
    }
}


// ************************************************************************* //
