/*--------------------------------*- C++ -*----------------------------------*\
  =========                 |
  \\      /  F ield         | OpenFOAM: The Open Source CFD Toolbox
   \\    /   O peration     | Website:  https://openfoam.org
    \\  /    A nd           | Version:  dev
     \\/     M anipulation  |
\*---------------------------------------------------------------------------*/
FoamFile
{
    format      ascii;
    class       dictionary;
    object      fluidMulticomponentThermo;
}
// * * * * * * * * * * * * * * * * * * * * * * * * * * * * * * * * * * * * * //

type
(
    hePsiThermo
    heRhoThermo
);

typeBase
(
    hePsiThermo psiMulticomponentThermo
    heRhoThermo rhoMulticomponentThermo
);

energy
(
    sensibleEnthalpy
    absoluteEnthalpy
    sensibleInternalEnergy
    absoluteInternalEnergy
);

mixture
(
    pureMixture
    multicomponentMixture
    valueMulticomponentMixture
    coefficientWilkeMulticomponentMixture
);

mixtureRenamed
(
    pureMixture singleComponentMixture
    multicomponentMixture coefficientMulticomponentMixture
);

transport
(
    const
    icoTabulated
    logPolynomial
    polynomial
    sutherland
    tabulated
    WLF
    Andrade
);

thermo
(
    eConst
    eIcoTabulated
    ePolynomial
    ePower
    eTabulated
    hConst
    hIcoTabulated
    hPolynomial
    hPower
    hTabulated
    janaf
);

equationOfState
(
    adiabaticPerfectFluid
    Boussinesq
    icoPolynomial
    icoTabulated
    incompressiblePerfectGas
    linear
    PengRobinsonGas
    perfectFluid
    perfectGas
    rhoConst
    rhoTabulated
    rPolynomial
);

specie
(
    specie
);

codeOptions
#{
EXE_INC = \
    -I$(LIB_SRC)/physicalProperties/lnInclude \
    -I$(LIB_SRC)/thermophysicalModels/specie/lnInclude \
    -I$(LIB_SRC)/thermophysicalModels/basic/lnInclude \
    -I$(LIB_SRC)/thermophysicalModels/multicomponentThermo/lnInclude \
    -I$(LIB_SRC)/finiteVolume/lnInclude
#};


// ************************************************************************* //
