/*--------------------------------*- C++ -*----------------------------------*\
  =========                 |
  \\      /  F ield         | OpenFOAM: The Open Source CFD Toolbox
   \\    /   O peration     | Website:  https://openfoam.org
    \\  /    A nd           | Version:  dev
     \\/     M anipulation  |
\*---------------------------------------------------------------------------*/
FoamFile
{
    format      ascii;
    class       dictionary;
    object      fluidThermo;
}
// * * * * * * * * * * * * * * * * * * * * * * * * * * * * * * * * * * * * * //

type
(
    hePsiThermo
);

typeBase
(
    hePsiThermo psiThermo
);

energy
(
    sensibleEnthalpy
    absoluteEnthalpy
    sensibleInternalEnergy
    absoluteInternalEnergy
);

mixture
(
    pureMixture
);

transport
(
    const
    polynomial
    sutherland
    tabulated
);

thermo
(
    eConst
    ePolynomial
    ePower
    eTabulated
    hConst
    hPolynomial
    hPower
    hTabulated
    janaf
);

equationOfState
(
    PengRobinsonGas
    perfectGas
);

specie
(
    specie
);

codeOptions
#{
EXE_INC = \
    -I$(LIB_SRC)/physicalProperties/lnInclude \
    -I$(LIB_SRC)/thermophysicalModels/specie/lnInclude \
    -I$(LIB_SRC)/thermophysicalModels/thermophysicalProperties/lnInclude \
    -I$(LIB_SRC)/thermophysicalModels/basic/lnInclude \
    -I$(LIB_SRC)/finiteVolume/lnInclude
#};


// ************************************************************************* //
