/*--------------------------------*- C++ -*----------------------------------*\
  =========                 |
  \\      /  F ield         | OpenFOAM: The Open Source CFD Toolbox
   \\    /   O peration     | Website:  https://openfoam.org
    \\  /    A nd           | Version:  dev
     \\/     M anipulation  |
\*---------------------------------------------------------------------------*/
FoamFile
{
    format      ascii;
    class       dictionary;
    object      functions;
}
// * * * * * * * * * * * * * * * * * * * * * * * * * * * * * * * * * * * * * //

cloudInfo1
{
    type            cloudInfo;
    libs            ("liblagrangianFunctionObjects.so");
    enabled         true;
    writeControl    timeStep;
    writeInterval   1;

    clouds          (myCloud1);
}

// ************************************************************************* //
