/*--------------------------------*- C++ -*----------------------------------*\
  =========                 |
  \\      /  F ield         | OpenFOAM: The Open Source CFD Toolbox
   \\    /   O peration     | Website:  https://openfoam.org
    \\  /    A nd           | Version:  dev
     \\/     M anipulation  |
\*---------------------------------------------------------------------------*/
FoamFile
{
    version     2.0;
    format      ascii;
    class       dictionary;
    location    "system";
    object      fvSolution;
}
// * * * * * * * * * * * * * * * * * * * * * * * * * * * * * * * * * * * * * //

solvers
{
    alpha.water
    {
        nAlphaCorr      1;
        nAlphaSubCycles 3;
    }

    "pcorr.*"
    {
        solver          PCG;
        preconditioner
        {
            preconditioner  GAMG;
            tolerance       1e-05;
            relTol          0;
            smoother        DICGaussSeidel;
            cacheAgglomeration no;
        }

        tolerance       1e-05;
        relTol          0;
        maxIter         100;
    }

    p_rgh
    {
        solver          GAMG;
        tolerance       1e-08;
        relTol          0.01;
        smoother        DIC;
    }

    p_rghFinal
    {
        solver          PCG;
        preconditioner
        {
            preconditioner  GAMG;
            tolerance       2e-09;
            relTol          0;
            nVcycles        2;
            smoother        DICGaussSeidel;
            nPreSweeps      2;
        }

        tolerance       2e-09;
        relTol          0;
        maxIter         20;
    }

    U
    {
        solver          smoothSolver;
        smoother        GaussSeidel;
        tolerance       1e-06;
        relTol          0;
        nSweeps         1;
    }
}

PIMPLE
{
    momentumPredictor no;
    nCorrectors     2;
    nNonOrthogonalCorrectors 0;
    correctPhi      no;

    pRefPoint       (0.0013 0.0017 0.0017);
    pRefValue       1e5;
}

relaxationFactors
{
    equations
    {
        ".*"            1;
    }
}


// ************************************************************************* //
